Skipping setup_environment - already set
doing: export -n PTX_SIM_USE_PTX_FILE
doing: export LD_LIBRARY_PATH=/home/htran197/accel-sim-framework/gpu-simulator/../accelwattch_runs/pascal_sass_sim/gpgpu-sim-builds/accelsim-commit-f27c5430b80f8b73e4027c2c6d1a1db58dd4adea_modified_9.0:/home/htran197/accel-sim-framework/gpu-simulator/gpgpu-sim/lib/gcc-8.4.0/cuda-11000/release::/usr/lib/x86_64-linux-gnu/slurm-wlm/:/usr/lib/x86_64-linux-gnu/slurm-wlm/
doing: cd /home/htran197/accel-sim-framework/gpu-simulator/../accelwattch_runs/pascal_sass_sim/parboil-mri-q/_i___data_large_input_64_64_64_dataset_bin__o_64_64_64_dataset_out/TITANX-Accelwattch_SASS_SIM
doing: export OPENCL_CURRENT_TEST_PATH=/home/htran197/accel-sim-framework/gpu-simulator/../accelwattch_runs/pascal_sass_sim/parboil-mri-q/_i___data_large_input_64_64_64_dataset_bin__o_64_64_64_dataset_out/TITANX-Accelwattch_SASS_SIM
doing: export OPENCL_REMOTE_GPU_HOST=REPLACE_REMOTE_HOST
doing 
doing: export PATH=/home/htran197/anaconda3/envs/python2/bin:/home/htran197/anaconda3/bin:/usr/local/cuda-11.0/bin:/usr/local/cuda/bin:/home/htran197/.vscode-server/bin/6261075646f055b99068d3688932416f2346dd3b/bin/remote-cli:/home/htran197/anaconda3/condabin:/home/htran197/accel-sim-framework/gpu-simulator/gpgpu-sim/bin:/usr/local/cuda-11.0/bin:/home/htran197/anaconda3/bin:/usr/local/cuda-11.0/bin:/usr/local/cuda/bin:/usr/local/sbin:/usr/local/bin:/usr/sbin:/usr/bin:/sbin:/bin:/usr/games:/usr/local/games:/snap/bin:/usr/local/bin
doing export CUDA_LAUNCH_BLOCKING=1
doing:  /home/htran197/accel-sim-framework/gpu-simulator/../accelwattch_runs/pascal_sass_sim/gpgpu-sim-builds/accelsim-commit-f27c5430b80f8b73e4027c2c6d1a1db58dd4adea_modified_9.0/accel-sim.out  -config ./gpgpusim.config -trace ./traces/kernelslist.g


        *** GPGPU-Sim Simulator Version 4.2.0  [build gpgpu-sim_git-commit-971dd69e8a6c355c8cc4c8bd997db51376ff520a_modified_0.0] ***


GPGPU-Sim: Configuration options:

-save_embedded_ptx                      0 # saves ptx files embedded in binary as <n>.ptx
-keep                                   0 # keep intermediate files created by GPGPU-Sim when interfacing with external programs
-gpgpu_ptx_save_converted_ptxplus                    0 # Saved converted ptxplus to a file
-gpgpu_occupancy_sm_number                   62 # The SM number to pass to ptxas when getting register usage for computing GPU occupancy. This parameter is required in the config.
-ptx_opcode_latency_int      4,13,4,5,145,32 # Opcode latencies for integers <ADD,MAX,MUL,MAD,DIV,SHFL>Default 1,1,19,25,145,32
-ptx_opcode_latency_fp          4,13,4,4,39 # Opcode latencies for single precision floating points <ADD,MAX,MUL,MAD,DIV>Default 1,1,1,1,30
-ptx_opcode_latency_dp         8,19,8,8,330 # Opcode latencies for double precision floating points <ADD,MAX,MUL,MAD,DIV>Default 8,8,8,8,335
-ptx_opcode_latency_sfu                   20 # Opcode latencies for SFU instructionsDefault 8
-ptx_opcode_latency_tesnor                   64 # Opcode latencies for Tensor instructionsDefault 64
-ptx_opcode_initiation_int          1,1,1,1,4,4 # Opcode initiation intervals for integers <ADD,MAX,MUL,MAD,DIV,SHFL>Default 1,1,4,4,32,4
-ptx_opcode_initiation_fp            1,2,1,1,4 # Opcode initiation intervals for single precision floating points <ADD,MAX,MUL,MAD,DIV>Default 1,1,1,1,5
-ptx_opcode_initiation_dp          8,8,8,8,130 # Opcode initiation intervals for double precision floating points <ADD,MAX,MUL,MAD,DIV>Default 8,8,8,8,130
-ptx_opcode_initiation_sfu                    4 # Opcode initiation intervals for sfu instructionsDefault 8
-ptx_opcode_initiation_tensor                   64 # Opcode initiation intervals for tensor instructionsDefault 64
-cdp_latency         7200,8000,100,12000,1600 # CDP API latency <cudaStreamCreateWithFlags, cudaGetParameterBufferV2_init_perWarp, cudaGetParameterBufferV2_perKernel, cudaLaunchDeviceV2_init_perWarp, cudaLaunchDevicV2_perKernel>Default 7200,8000,100,12000,1600
-network_mode                           1 # Interconnection network mode
-inter_config_file   config_pascal_islip.icnt # Interconnection network config file
-icnt_in_buffer_limit                   64 # in_buffer_limit
-icnt_out_buffer_limit                   64 # out_buffer_limit
-icnt_subnets                           2 # subnets
-icnt_arbiter_algo                      1 # arbiter_algo
-icnt_verbose                           0 # inct_verbose
-icnt_grant_cycles                      1 # grant_cycles
-gpgpu_ptx_use_cuobjdump                    1 # Use cuobjdump to extract ptx and sass from binaries
-gpgpu_experimental_lib_support                    0 # Try to extract code from cuda libraries [Broken because of unknown cudaGetExportTable]
-checkpoint_option                      0 #  checkpointing flag (0 = no checkpoint)
-checkpoint_kernel                      1 #  checkpointing during execution of which kernel (1- 1st kernel)
-checkpoint_CTA                         0 #  checkpointing after # of CTA (< less than total CTA)
-resume_option                          0 #  resume flag (0 = no resume)
-resume_kernel                          0 #  Resume from which kernel (1= 1st kernel)
-resume_CTA                             0 #  resume from which CTA 
-checkpoint_CTA_t                       0 #  resume from which CTA 
-checkpoint_insn_Y                      0 #  resume from which CTA 
-gpgpu_ptx_convert_to_ptxplus                    0 # Convert SASS (native ISA) to ptxplus and run ptxplus
-gpgpu_ptx_force_max_capability                   61 # Force maximum compute capability
-gpgpu_ptx_inst_debug_to_file                    0 # Dump executed instructions' debug information to file
-gpgpu_ptx_inst_debug_file       inst_debug.txt # Executed instructions' debug output file
-gpgpu_ptx_inst_debug_thread_uid                    1 # Thread UID for executed instructions' debug output
-gpgpu_simd_model                       1 # 1 = post-dominator
-gpgpu_shader_core_pipeline              2048:32 # shader core pipeline config, i.e., {<nthread>:<warpsize>}
-gpgpu_tex_cache:l1  N:16:128:24,L:R:m:N:L,T:128:4,128:2 # per-shader L1 texture cache  (READ-ONLY) config  {<nsets>:<bsize>:<assoc>,<rep>:<wr>:<alloc>:<wr_alloc>,<mshr>:<N>:<merge>,<mq>:<rf>}
-gpgpu_const_cache:l1 N:128:64:2,L:R:f:N:L,S:2:64,4 # per-shader L1 constant memory cache  (READ-ONLY) config  {<nsets>:<bsize>:<assoc>,<rep>:<wr>:<alloc>:<wr_alloc>,<mshr>:<N>:<merge>,<mq>} 
-gpgpu_cache:il1     N:8:128:4,L:R:f:N:L,S:2:48,4 # shader L1 instruction cache config  {<nsets>:<bsize>:<assoc>,<rep>:<wr>:<alloc>:<wr_alloc>,<mshr>:<N>:<merge>,<mq>} 
-gpgpu_cache:dl1     S:4:128:96,L:L:s:N:L,A:256:8,16:0,32 # per-shader L1 data cache config  {<nsets>:<bsize>:<assoc>,<rep>:<wr>:<alloc>:<wr_alloc>,<mshr>:<N>:<merge>,<mq> | none}
-gpgpu_l1_banks                         2 # The number of L1 cache banks
-gpgpu_l1_banks_byte_interleaving                   32 # l1 banks byte interleaving granularity
-gpgpu_l1_banks_hashing_function                    0 # l1 banks hashing function
-gpgpu_l1_latency                      82 # L1 Hit Latency
-gpgpu_smem_latency                    24 # smem Latency
-gpgpu_cache:dl1PrefL1 S:4:128:96,L:L:s:N:L,A:256:8,16:0,32 # per-shader L1 data cache config  {<nsets>:<bsize>:<assoc>,<rep>:<wr>:<alloc>:<wr_alloc>,<mshr>:<N>:<merge>,<mq> | none}
-gpgpu_cache:dl1PrefShared S:4:128:96,L:L:s:N:L,A:256:8,16:0,32 # per-shader L1 data cache config  {<nsets>:<bsize>:<assoc>,<rep>:<wr>:<alloc>:<wr_alloc>,<mshr>:<N>:<merge>,<mq> | none}
-gpgpu_gmem_skip_L1D                    1 # global memory access skip L1D cache (implements -Xptxas -dlcm=cg, default=no skip)
-gpgpu_perfect_mem                      0 # enable perfect memory mode (no cache miss)
-n_regfile_gating_group                    4 # group of lanes that should be read/written together)
-gpgpu_clock_gated_reg_file                    0 # enable clock gated reg file for power calculations
-gpgpu_clock_gated_lanes                    1 # enable clock gated lanes for power calculations
-gpgpu_shader_registers                65536 # Number of registers per shader core. Limits number of concurrent CTAs. (default 8192)
-gpgpu_registers_per_block                 8192 # Maximum number of registers per CTA. (default 8192)
-gpgpu_ignore_resources_limitation                    1 # gpgpu_ignore_resources_limitation (default 0)
-gpgpu_shader_cta                      32 # Maximum number of concurrent CTAs in shader (default 8)
-gpgpu_num_cta_barriers                   16 # Maximum number of named barriers per CTA (default 16)
-gpgpu_n_clusters                       6 # number of processing clusters
-gpgpu_n_cores_per_cluster                    1 # number of simd cores per cluster
-gpgpu_n_cluster_ejection_buffer_size                   32 # number of packets in ejection buffer
-gpgpu_n_ldst_response_buffer_size                    2 # number of response packets in ld/st unit ejection buffer
-gpgpu_shmem_per_block                49152 # Size of shared memory per thread block or CTA (default 48kB)
-gpgpu_shmem_size                   98304 # Size of shared memory per shader core (default 16kB)
-gpgpu_adaptive_cache_config                    0 # adaptive_cache_config
-gpgpu_shmem_sizeDefault                98304 # Size of shared memory per shader core (default 16kB)
-gpgpu_shmem_size_PrefL1                98304 # Size of shared memory per shader core (default 16kB)
-gpgpu_shmem_size_PrefShared                98304 # Size of shared memory per shader core (default 16kB)
-gpgpu_shmem_num_banks                   32 # Number of banks in the shared memory in each shader core (default 16)
-gpgpu_shmem_limited_broadcast                    0 # Limit shared memory to do one broadcast per cycle (default on)
-gpgpu_shmem_warp_parts                    1 # Number of portions a warp is divided into for shared memory bank conflict check 
-gpgpu_mem_unit_ports                    1 # The number of memory transactions allowed per core cycle
-gpgpu_shmem_warp_parts                    1 # Number of portions a warp is divided into for shared memory bank conflict check 
-gpgpu_warpdistro_shader                   -1 # Specify which shader core to collect the warp size distribution from
-gpgpu_warp_issue_shader                    0 # Specify which shader core to collect the warp issue distribution from
-gpgpu_local_mem_map                    1 # Mapping from local memory space address to simulated GPU physical address space (default = enabled)
-gpgpu_num_reg_banks                   16 # Number of register banks (default = 8)
-gpgpu_reg_bank_use_warp_id                    0 # Use warp ID in mapping registers to banks (default = off)
-gpgpu_sub_core_model                    1 # Sub Core Volta/Pascal model (default = off)
-gpgpu_enable_specialized_operand_collector                    0 # enable_specialized_operand_collector
-gpgpu_operand_collector_num_units_sp                    4 # number of collector units (default = 4)
-gpgpu_operand_collector_num_units_dp                    0 # number of collector units (default = 0)
-gpgpu_operand_collector_num_units_sfu                    4 # number of collector units (default = 4)
-gpgpu_operand_collector_num_units_int                    0 # number of collector units (default = 0)
-gpgpu_operand_collector_num_units_tensor_core                    4 # number of collector units (default = 4)
-gpgpu_operand_collector_num_units_mem                    2 # number of collector units (default = 2)
-gpgpu_operand_collector_num_units_gen                    8 # number of collector units (default = 0)
-gpgpu_operand_collector_num_in_ports_sp                    1 # number of collector unit in ports (default = 1)
-gpgpu_operand_collector_num_in_ports_dp                    0 # number of collector unit in ports (default = 0)
-gpgpu_operand_collector_num_in_ports_sfu                    1 # number of collector unit in ports (default = 1)
-gpgpu_operand_collector_num_in_ports_int                    0 # number of collector unit in ports (default = 0)
-gpgpu_operand_collector_num_in_ports_tensor_core                    1 # number of collector unit in ports (default = 1)
-gpgpu_operand_collector_num_in_ports_mem                    1 # number of collector unit in ports (default = 1)
-gpgpu_operand_collector_num_in_ports_gen                    8 # number of collector unit in ports (default = 0)
-gpgpu_operand_collector_num_out_ports_sp                    1 # number of collector unit in ports (default = 1)
-gpgpu_operand_collector_num_out_ports_dp                    0 # number of collector unit in ports (default = 0)
-gpgpu_operand_collector_num_out_ports_sfu                    1 # number of collector unit in ports (default = 1)
-gpgpu_operand_collector_num_out_ports_int                    0 # number of collector unit in ports (default = 0)
-gpgpu_operand_collector_num_out_ports_tensor_core                    1 # number of collector unit in ports (default = 1)
-gpgpu_operand_collector_num_out_ports_mem                    1 # number of collector unit in ports (default = 1)
-gpgpu_operand_collector_num_out_ports_gen                    8 # number of collector unit in ports (default = 0)
-gpgpu_coalesce_arch                   61 # Coalescing arch (GT200 = 13, Fermi = 20)
-gpgpu_num_sched_per_core                    4 # Number of warp schedulers per core
-gpgpu_max_insn_issue_per_warp                    2 # Max number of instructions that can be issued per warp in one cycle by scheduler (either 1 or 2)
-gpgpu_dual_issue_diff_exec_units                    1 # should dual issue use two different execution unit resources (Default = 1)
-gpgpu_simt_core_sim_order                    1 # Select the simulation order of cores in a cluster (0=Fix, 1=Round-Robin)
-gpgpu_pipeline_widths 4,0,0,4,4,4,0,0,4,4,8 # Pipeline widths ID_OC_SP,ID_OC_DP,ID_OC_INT,ID_OC_SFU,ID_OC_MEM,OC_EX_SP,OC_EX_DP,OC_EX_INT,OC_EX_SFU,OC_EX_MEM,EX_WB,ID_OC_TENSOR_CORE,OC_EX_TENSOR_CORE
-gpgpu_tensor_core_avail                    0 # Tensor Core Available (default=0)
-gpgpu_num_sp_units                     4 # Number of SP units (default=1)
-gpgpu_num_dp_units                     0 # Number of DP units (default=0)
-gpgpu_num_int_units                    0 # Number of INT units (default=0)
-gpgpu_num_sfu_units                    4 # Number of SF units (default=1)
-gpgpu_num_tensor_core_units                    0 # Number of tensor_core units (default=1)
-gpgpu_num_mem_units                    1 # Number if ldst units (default=1) WARNING: not hooked up to anything
-gpgpu_scheduler                      gto # Scheduler configuration: < lrr | gto | two_level_active > If two_level_active:<num_active_warps>:<inner_prioritization>:<outer_prioritization>For complete list of prioritization values see shader.h enum scheduler_prioritization_typeDefault: gto
-gpgpu_concurrent_kernel_sm                    0 # Support concurrent kernels on a SM (default = disabled)
-gpgpu_perfect_inst_const_cache                    1 # perfect inst and const cache mode, so all inst and const hits in the cache(default = disabled)
-gpgpu_inst_fetch_throughput                    8 # the number of fetched intruction per warp each cycle
-gpgpu_reg_file_port_throughput                    2 # the number ports of the register file
-specialized_unit_1         0,4,4,4,4,BRA # specialized unit config {<enabled>,<num_units>:<latency>:<initiation>,<ID_OC_SPEC>:<OC_EX_SPEC>,<NAME>}
-specialized_unit_2         0,4,4,4,4,BRA # specialized unit config {<enabled>,<num_units>:<latency>:<initiation>,<ID_OC_SPEC>:<OC_EX_SPEC>,<NAME>}
-specialized_unit_3         0,4,4,4,4,BRA # specialized unit config {<enabled>,<num_units>:<latency>:<initiation>,<ID_OC_SPEC>:<OC_EX_SPEC>,<NAME>}
-specialized_unit_4         0,4,4,4,4,BRA # specialized unit config {<enabled>,<num_units>:<latency>:<initiation>,<ID_OC_SPEC>:<OC_EX_SPEC>,<NAME>}
-specialized_unit_5         0,4,4,4,4,BRA # specialized unit config {<enabled>,<num_units>:<latency>:<initiation>,<ID_OC_SPEC>:<OC_EX_SPEC>,<NAME>}
-specialized_unit_6         0,4,4,4,4,BRA # specialized unit config {<enabled>,<num_units>:<latency>:<initiation>,<ID_OC_SPEC>:<OC_EX_SPEC>,<NAME>}
-specialized_unit_7         0,4,4,4,4,BRA # specialized unit config {<enabled>,<num_units>:<latency>:<initiation>,<ID_OC_SPEC>:<OC_EX_SPEC>,<NAME>}
-specialized_unit_8         0,4,4,4,4,BRA # specialized unit config {<enabled>,<num_units>:<latency>:<initiation>,<ID_OC_SPEC>:<OC_EX_SPEC>,<NAME>}
-gpgpu_perf_sim_memcpy                    1 # Fill the L2 cache on memcpy
-gpgpu_simple_dram_model                    0 # simple_dram_model with fixed latency and BW
-gpgpu_dram_scheduler                    1 # 0 = fifo, 1 = FR-FCFS (defaul)
-gpgpu_dram_partition_queues          32:32:32:32 # i2$:$2d:d2$:$2i
-l2_ideal                               0 # Use a ideal L2 cache that always hit
-gpgpu_cache:dl2     S:64:128:16,L:B:m:L:P,A:256:64,16:0,32 # unified banked L2 data cache config  {<nsets>:<bsize>:<assoc>,<rep>:<wr>:<alloc>:<wr_alloc>,<mshr>:<N>:<merge>,<mq>}
-gpgpu_cache:dl2_texture_only                    0 # L2 cache used for texture only
-gpgpu_n_mem                           12 # number of memory modules (e.g. memory controllers) in gpu
-gpgpu_n_sub_partition_per_mchannel                    2 # number of memory subpartition in each memory module
-gpgpu_n_mem_per_ctrlr                    1 # number of memory chips per memory controller
-gpgpu_memlatency_stat                   14 # track and display latency statistics 0x2 enables MC, 0x4 enables queue logs
-gpgpu_frfcfs_dram_sched_queue_size                   64 # 0 = unlimited (default); # entries per chip
-gpgpu_dram_return_queue_size                   64 # 0 = unlimited (default); # entries per chip
-gpgpu_dram_buswidth                    4 # default = 4 bytes (8 bytes per cycle at DDR)
-gpgpu_dram_burst_length                    8 # Burst length of each DRAM request (default = 4 data bus cycle)
-dram_data_command_freq_ratio                    4 # Frequency ratio between DRAM data bus and command bus (default = 2 times, i.e. DDR)
-gpgpu_dram_timing_opt nbk=16:CCD=2:RRD=8:RCD=16:RAS=37:RP=16:RC=52: CL=16:WL=6:CDLR=7:WR=16:nbkgrp=4:CCDL=4:RTPL=3 # DRAM timing parameters = {nbk:tCCD:tRRD:tRCD:tRAS:tRP:tRC:CL:WL:tCDLR:tWR:nbkgrp:tCCDL:tRTPL}
-gpgpu_l2_rop_latency                  120 # ROP queue latency (default 85)
-dram_latency                         100 # DRAM latency (default 30)
-dram_dual_bus_interface                    0 # dual_bus_interface (default = 0) 
-dram_bnk_indexing_policy                    0 # dram_bnk_indexing_policy (0 = normal indexing, 1 = Xoring with the higher bits) (Default = 0)
-dram_bnkgrp_indexing_policy                    1 # dram_bnkgrp_indexing_policy (0 = take higher bits, 1 = take lower bits) (Default = 0)
-dram_seperate_write_queue_enable                    0 # Seperate_Write_Queue_Enable
-dram_write_queue_size             32:28:16 # Write_Queue_Size
-dram_elimnate_rw_turnaround                    0 # elimnate_rw_turnaround i.e set tWTR and tRTW = 0
-icnt_flit_size                        40 # icnt_flit_size
-gpgpu_mem_addr_mapping dramid@8;00000000.00000000.00000000.00000000.0000RRRR.RRRRRRRR.RBBBCCCC.BCCSSSSS # mapping memory address to dram model {dramid@<start bit>;<memory address map>}
-gpgpu_mem_addr_test                    0 # run sweep test to check address mapping for aliased address
-gpgpu_mem_address_mask                    1 # 0 = old addressing mask, 1 = new addressing mask, 2 = new add. mask + flipped bank sel and chip sel bits
-gpgpu_memory_partition_indexing                    4 # 0 = no indexing, 1 = bitwise xoring, 2 = IPoly, 3 = custom indexing
-accelwattch_xml_file accelwattch_sass_sim.xml # AccelWattch XML file
-power_simulation_enabled                    1 # Turn on power simulator (1=On, 0=Off)
-power_per_cycle_dump                    0 # Dump detailed power output each cycle
-hw_perf_file_name            hw_perf.csv # Hardware Performance Statistics file
-hw_perf_bench_name                       # Kernel Name in Hardware Performance Statistics file
-power_simulation_mode                    0 # Switch performance counter input for power simulation (0=Sim, 1=HW, 2=HW-Sim Hybrid)
-dvfs_enabled                           0 # Turn on DVFS for power model
-aggregate_power_stats                    0 # Accumulate power across all kernels
-accelwattch_hybrid_perfsim_L1_RH                    0 # Get L1 Read Hits for Accelwattch-Hybrid from Accel-Sim
-accelwattch_hybrid_perfsim_L1_RM                    0 # Get L1 Read Misses for Accelwattch-Hybrid from Accel-Sim
-accelwattch_hybrid_perfsim_L1_WH                    0 # Get L1 Write Hits for Accelwattch-Hybrid from Accel-Sim
-accelwattch_hybrid_perfsim_L1_WM                    0 # Get L1 Write Misses for Accelwattch-Hybrid from Accel-Sim
-accelwattch_hybrid_perfsim_L2_RH                    0 # Get L2 Read Hits for Accelwattch-Hybrid from Accel-Sim
-accelwattch_hybrid_perfsim_L2_RM                    0 # Get L2 Read Misses for Accelwattch-Hybrid from Accel-Sim
-accelwattch_hybrid_perfsim_L2_WH                    0 # Get L2 Write Hits for Accelwattch-Hybrid from Accel-Sim
-accelwattch_hybrid_perfsim_L2_WM                    0 # Get L2 Write Misses for Accelwattch-Hybrid from Accel-Sim
-accelwattch_hybrid_perfsim_CC_ACC                    0 # Get Constant Cache Acesses for Accelwattch-Hybrid from Accel-Sim
-accelwattch_hybrid_perfsim_SHARED_ACC                    0 # Get Shared Memory Acesses for Accelwattch-Hybrid from Accel-Sim
-accelwattch_hybrid_perfsim_DRAM_RD                    0 # Get DRAM Reads for Accelwattch-Hybrid from Accel-Sim
-accelwattch_hybrid_perfsim_DRAM_WR                    0 # Get DRAM Writes for Accelwattch-Hybrid from Accel-Sim
-accelwattch_hybrid_perfsim_NOC                    0 # Get Interconnect Acesses for Accelwattch-Hybrid from Accel-Sim
-accelwattch_hybrid_perfsim_PIPE_DUTY                    0 # Get Pipeline Duty Cycle Acesses for Accelwattch-Hybrid from Accel-Sim
-accelwattch_hybrid_perfsim_NUM_SM_IDLE                    0 # Get Number of Idle SMs for Accelwattch-Hybrid from Accel-Sim
-accelwattch_hybrid_perfsim_CYCLES                    0 # Get Executed Cycles for Accelwattch-Hybrid from Accel-Sim
-accelwattch_hybrid_perfsim_VOLTAGE                    0 # Get Chip Voltage for Accelwattch-Hybrid from Accel-Sim
-power_trace_enabled                    0 # produce a file for the power trace (1=On, 0=Off)
-power_trace_zlevel                     6 # Compression level of the power trace output log (0=no comp, 9=highest)
-steady_power_levels_enabled                    0 # produce a file for the steady power levels (1=On, 0=Off)
-steady_state_definition                  8:4 # allowed deviation:number of samples
-gpgpu_max_cycle                        0 # terminates gpu simulation early (0 = no limit)
-gpgpu_max_insn                         0 # terminates gpu simulation early (0 = no limit)
-gpgpu_max_cta                          0 # terminates gpu simulation early (0 = no limit)
-gpgpu_max_completed_cta                    0 # terminates gpu simulation early (0 = no limit)
-gpgpu_runtime_stat                   500 # display runtime statistics such as dram utilization {<freq>:<flag>}
-liveness_message_freq                    1 # Minimum number of seconds between simulation liveness messages (0 = always print)
-gpgpu_compute_capability_major                    6 # Major compute capability version number
-gpgpu_compute_capability_minor                    1 # Minor compute capability version number
-gpgpu_flush_l1_cache                    1 # Flush L1 cache at the end of each kernel call
-gpgpu_flush_l2_cache                    0 # Flush L2 cache at the end of each kernel call
-gpgpu_deadlock_detect                    1 # Stop the simulation at deadlock (1=on (default), 0=off)
-gpgpu_ptx_instruction_classification                    0 # if enabled will classify ptx instruction types per kernel (Max 255 kernels now)
-gpgpu_ptx_sim_mode                     0 # Select between Performance (default) or Functional simulation (1)
-gpgpu_clock_domains 1417.0:1417.0:1417.0:2500.0 # Clock Domain Frequencies in MhZ {<Core Clock>:<ICNT Clock>:<L2 Clock>:<DRAM Clock>}
-gpgpu_max_concurrent_kernel                    8 # maximum kernels that can run concurrently on GPU
-gpgpu_cflog_interval                    0 # Interval between each snapshot in control flow logger
-visualizer_enabled                     0 # Turn on visualizer output (1=On, 0=Off)
-visualizer_outputfile                 NULL # Specifies the output log file for visualizer
-visualizer_zlevel                      6 # Compression level of the visualizer output log (0=no comp, 9=highest)
-gpgpu_stack_size_limit                 1024 # GPU thread stack size
-gpgpu_heap_size_limit              8388608 # GPU malloc heap size 
-gpgpu_runtime_sync_depth_limit                    2 # GPU device runtime synchronize depth
-gpgpu_runtime_pending_launch_count_limit                 2048 # GPU device runtime pending launch count
-trace_enabled                          0 # Turn on traces
-trace_components                    none # comma seperated list of traces to enable. Complete list found in trace_streams.tup. Default none
-trace_sampling_core                    0 # The core which is printed using CORE_DPRINTF. Default 0
-trace_sampling_memory_partition                   -1 # The memory partition which is printed using MEMPART_DPRINTF. Default -1 (i.e. all)
-enable_ptx_file_line_stats                    1 # Turn on PTX source line statistic profiling. (1 = On)
-ptx_line_stats_filename gpgpu_inst_stats.txt # Output file for PTX source line statistics.
-gpgpu_kernel_launch_latency                 5000 # Kernel launch latency in cycles. Default: 0
-gpgpu_cdp_enabled                      0 # Turn on CDP
-gpgpu_TB_launch_latency                    0 # thread block launch latency in cycles. Default: 0
-trace               ./traces/kernelslist.g # traces kernel filetraces kernel file directory
-trace_opcode_latency_initiation_int                  4,1 # Opcode latencies and initiation for integers in trace driven mode <latency,initiation>
-trace_opcode_latency_initiation_sp                  4,1 # Opcode latencies and initiation for sp in trace driven mode <latency,initiation>
-trace_opcode_latency_initiation_dp                 20,8 # Opcode latencies and initiation for dp in trace driven mode <latency,initiation>
-trace_opcode_latency_initiation_sfu                 20,4 # Opcode latencies and initiation for sfu in trace driven mode <latency,initiation>
-trace_opcode_latency_initiation_tensor                  4,1 # Opcode latencies and initiation for tensor in trace driven mode <latency,initiation>
-trace_opcode_latency_initiation_spec_op_1                  4,4 # specialized unit config <latency,initiation>
-trace_opcode_latency_initiation_spec_op_2                  4,4 # specialized unit config <latency,initiation>
-trace_opcode_latency_initiation_spec_op_3                  4,4 # specialized unit config <latency,initiation>
-trace_opcode_latency_initiation_spec_op_4                  4,4 # specialized unit config <latency,initiation>
-trace_opcode_latency_initiation_spec_op_5                  4,4 # specialized unit config <latency,initiation>
-trace_opcode_latency_initiation_spec_op_6                  4,4 # specialized unit config <latency,initiation>
-trace_opcode_latency_initiation_spec_op_7                  4,4 # specialized unit config <latency,initiation>
-trace_opcode_latency_initiation_spec_op_8                  4,4 # specialized unit config <latency,initiation>
DRAM Timing Options:
nbk                                    16 # number of banks
CCD                                     2 # column to column delay
RRD                                     8 # minimal delay between activation of rows in different banks
RCD                                    16 # row to column delay
RAS                                    37 # time needed to activate row
RP                                     16 # time needed to precharge (deactivate) row
RC                                     52 # row cycle time
CDLR                                    7 # switching from write to read (changes tWTR)
WR                                     16 # last data-in to row precharge
CL                                     16 # CAS latency
WL                                      6 # Write latency
nbkgrp                                  4 # number of bank groups
CCDL                                    4 # column to column delay between accesses to different bank groups
RTPL                                    3 # read to precharge delay between accesses to different bank groups
Total number of memory sub partition = 24
addr_dec_mask[CHIP]  = 0000000000000000 	high:64 low:0
addr_dec_mask[BK]    = 0000000000007080 	high:15 low:7
addr_dec_mask[ROW]   = 000000000fff8000 	high:28 low:15
addr_dec_mask[COL]   = 0000000000000f7f 	high:12 low:0
addr_dec_mask[BURST] = 000000000000001f 	high:5 low:0
sub_partition_id_mask = 0000000000000080
GPGPU-Sim uArch: clock freqs: 1417000000.000000:1417000000.000000:1417000000.000000:2500000000.000000
GPGPU-Sim uArch: clock periods: 0.00000000070571630205:0.00000000070571630205:0.00000000070571630205:0.00000000040000000000
*** Initializing Memory Statistics ***
GPGPU-Sim uArch: interconnect node map (shaderID+MemID to icntID)
GPGPU-Sim uArch: Memory nodes ID start from index: 6
GPGPU-Sim uArch:    0   1   2   3   4   5   6
GPGPU-Sim uArch:    7   8   9  10  11  12  13
GPGPU-Sim uArch:   14  15  16  17  18  19  20
GPGPU-Sim uArch:   21  22  23  24  25  26  27
GPGPU-Sim uArch:   28  29  30  31  32  33  34
GPGPU-Sim uArch:   35  36  37  38  39  40  41
GPGPU-Sim uArch:   42  43  44  45  46  47  48
GPGPU-Sim uArch:   49  50  51
GPGPU-Sim uArch: interconnect node reverse map (icntID to shaderID+MemID)
GPGPU-Sim uArch: Memory nodes start from ID: 6
GPGPU-Sim uArch:    0   1   2   3   4   5   6
GPGPU-Sim uArch:    7   8   9  10  11  12  13
GPGPU-Sim uArch:   14  15  16  17  18  19  20
GPGPU-Sim uArch:   21  22  23  24  25  26  27
GPGPU-Sim uArch:   28  29  30  31  32  33  34
GPGPU-Sim uArch:   35  36  37  38  39  40  41
GPGPU-Sim uArch:   42  43  44  45  46  47  48
GPGPU-Sim uArch:   49  50  51
GPGPU-Sim uArch: performance model initialization complete.
launching memcpy command : MemcpyHtoD,0x00007f5043f00000,8192
launching memcpy command : MemcpyHtoD,0x00007f5043f02000,8192
Processing kernel ./traces/kernel-1.traceg
-kernel name = _Z17ComputePhiMag_GPUPfS_S_i
-kernel id = 1
-grid dim = (4,1,1)
-block dim = (512,1,1)
-shmem = 0
-nregs = 8
-binary version = 61
-cuda stream id = 0
-shmem base_addr = 0x00007f506c000000
-local mem base_addr = 0x00007f506a000000
-nvbit version = 1.5
-accelsim tracer version = 3
launching kernel command : ./traces/kernel-1.traceg
GPGPU-Sim uArch: Shader 0 bind to kernel 1 '_Z17ComputePhiMag_GPUPfS_S_i'
GPGPU-Sim uArch: CTA/core = 4, limited by: threads
thread block = 0,0,0
GPGPU-Sim uArch: Shader 1 bind to kernel 1 '_Z17ComputePhiMag_GPUPfS_S_i'
thread block = 1,0,0
GPGPU-Sim uArch: Shader 2 bind to kernel 1 '_Z17ComputePhiMag_GPUPfS_S_i'
thread block = 2,0,0
GPGPU-Sim uArch: Shader 3 bind to kernel 1 '_Z17ComputePhiMag_GPUPfS_S_i'
thread block = 3,0,0
Destroy streams for kernel 1: size 0
kernel_name = _Z17ComputePhiMag_GPUPfS_S_i 
kernel_launch_uid = 1 
gpu_sim_cycle = 5513
gpu_sim_insn = 45056
gpu_ipc =       8.1727
gpu_tot_sim_cycle = 5513
gpu_tot_sim_insn = 45056
gpu_tot_ipc =       8.1727
gpu_tot_issued_cta = 4
gpu_occupancy = 22.3459% 
gpu_tot_occupancy = 22.3459% 
max_total_param_size = 0
gpu_stall_dramfull = 0
gpu_stall_icnt2sh    = 0
partiton_level_parallism =       0.1393
partiton_level_parallism_total  =       0.1393
partiton_level_parallism_util =       2.9653
partiton_level_parallism_util_total  =       2.9653
L2_BW  =       6.3167 GB/Sec
L2_BW_total  =       6.3167 GB/Sec
gpu_total_sim_rate=45056

========= Core cache stats =========
L1I_cache:
	L1I_total_cache_accesses = 0
	L1I_total_cache_misses = 0
	L1I_total_cache_pending_hits = 0
	L1I_total_cache_reservation_fails = 0
L1D_cache:
	L1D_cache_core[0]: Access = 0, Miss = 0, Miss_rate = -nan, Pending_hits = 0, Reservation_fails = 0
	L1D_cache_core[1]: Access = 0, Miss = 0, Miss_rate = -nan, Pending_hits = 0, Reservation_fails = 0
	L1D_cache_core[2]: Access = 0, Miss = 0, Miss_rate = -nan, Pending_hits = 0, Reservation_fails = 0
	L1D_cache_core[3]: Access = 0, Miss = 0, Miss_rate = -nan, Pending_hits = 0, Reservation_fails = 0
	L1D_cache_core[4]: Access = 0, Miss = 0, Miss_rate = -nan, Pending_hits = 0, Reservation_fails = 0
	L1D_cache_core[5]: Access = 0, Miss = 0, Miss_rate = -nan, Pending_hits = 0, Reservation_fails = 0
	L1D_total_cache_accesses = 0
	L1D_total_cache_misses = 0
	L1D_total_cache_pending_hits = 0
	L1D_total_cache_reservation_fails = 0
	L1D_cache_data_port_util = 0.000
	L1D_cache_fill_port_util = 0.000
L1C_cache:
	L1C_total_cache_accesses = 0
	L1C_total_cache_misses = 0
	L1C_total_cache_pending_hits = 0
	L1C_total_cache_reservation_fails = 0
L1T_cache:
	L1T_total_cache_accesses = 0
	L1T_total_cache_misses = 0
	L1T_total_cache_pending_hits = 0
	L1T_total_cache_reservation_fails = 0

Total_core_cache_stats:
	Total_core_cache_stats_breakdown[GLOBAL_ACC_R][HIT] = 0
	Total_core_cache_stats_breakdown[GLOBAL_ACC_R][HIT_RESERVED] = 0
	Total_core_cache_stats_breakdown[GLOBAL_ACC_R][MISS] = 0
	Total_core_cache_stats_breakdown[GLOBAL_ACC_R][RESERVATION_FAIL] = 0
	Total_core_cache_stats_breakdown[GLOBAL_ACC_R][SECTOR_MISS] = 0
	Total_core_cache_stats_breakdown[GLOBAL_ACC_R][MSHR_HIT] = 0
	Total_core_cache_stats_breakdown[LOCAL_ACC_R][HIT] = 0
	Total_core_cache_stats_breakdown[LOCAL_ACC_R][HIT_RESERVED] = 0
	Total_core_cache_stats_breakdown[LOCAL_ACC_R][MISS] = 0
	Total_core_cache_stats_breakdown[LOCAL_ACC_R][RESERVATION_FAIL] = 0
	Total_core_cache_stats_breakdown[LOCAL_ACC_R][SECTOR_MISS] = 0
	Total_core_cache_stats_breakdown[LOCAL_ACC_R][MSHR_HIT] = 0
	Total_core_cache_stats_breakdown[CONST_ACC_R][HIT] = 0
	Total_core_cache_stats_breakdown[CONST_ACC_R][HIT_RESERVED] = 0
	Total_core_cache_stats_breakdown[CONST_ACC_R][MISS] = 0
	Total_core_cache_stats_breakdown[CONST_ACC_R][RESERVATION_FAIL] = 0
	Total_core_cache_stats_breakdown[CONST_ACC_R][SECTOR_MISS] = 0
	Total_core_cache_stats_breakdown[CONST_ACC_R][MSHR_HIT] = 0
	Total_core_cache_stats_breakdown[TEXTURE_ACC_R][HIT] = 0
	Total_core_cache_stats_breakdown[TEXTURE_ACC_R][HIT_RESERVED] = 0
	Total_core_cache_stats_breakdown[TEXTURE_ACC_R][MISS] = 0
	Total_core_cache_stats_breakdown[TEXTURE_ACC_R][RESERVATION_FAIL] = 0
	Total_core_cache_stats_breakdown[TEXTURE_ACC_R][SECTOR_MISS] = 0
	Total_core_cache_stats_breakdown[TEXTURE_ACC_R][MSHR_HIT] = 0
	Total_core_cache_stats_breakdown[GLOBAL_ACC_W][HIT] = 0
	Total_core_cache_stats_breakdown[GLOBAL_ACC_W][HIT_RESERVED] = 0
	Total_core_cache_stats_breakdown[GLOBAL_ACC_W][MISS] = 0
	Total_core_cache_stats_breakdown[GLOBAL_ACC_W][RESERVATION_FAIL] = 0
	Total_core_cache_stats_breakdown[GLOBAL_ACC_W][SECTOR_MISS] = 0
	Total_core_cache_stats_breakdown[GLOBAL_ACC_W][MSHR_HIT] = 0
	Total_core_cache_stats_breakdown[LOCAL_ACC_W][HIT] = 0
	Total_core_cache_stats_breakdown[LOCAL_ACC_W][HIT_RESERVED] = 0
	Total_core_cache_stats_breakdown[LOCAL_ACC_W][MISS] = 0
	Total_core_cache_stats_breakdown[LOCAL_ACC_W][RESERVATION_FAIL] = 0
	Total_core_cache_stats_breakdown[LOCAL_ACC_W][SECTOR_MISS] = 0
	Total_core_cache_stats_breakdown[LOCAL_ACC_W][MSHR_HIT] = 0
	Total_core_cache_stats_breakdown[L1_WRBK_ACC][HIT] = 0
	Total_core_cache_stats_breakdown[L1_WRBK_ACC][HIT_RESERVED] = 0
	Total_core_cache_stats_breakdown[L1_WRBK_ACC][MISS] = 0
	Total_core_cache_stats_breakdown[L1_WRBK_ACC][RESERVATION_FAIL] = 0
	Total_core_cache_stats_breakdown[L1_WRBK_ACC][SECTOR_MISS] = 0
	Total_core_cache_stats_breakdown[L1_WRBK_ACC][MSHR_HIT] = 0
	Total_core_cache_stats_breakdown[L2_WRBK_ACC][HIT] = 0
	Total_core_cache_stats_breakdown[L2_WRBK_ACC][HIT_RESERVED] = 0
	Total_core_cache_stats_breakdown[L2_WRBK_ACC][MISS] = 0
	Total_core_cache_stats_breakdown[L2_WRBK_ACC][RESERVATION_FAIL] = 0
	Total_core_cache_stats_breakdown[L2_WRBK_ACC][SECTOR_MISS] = 0
	Total_core_cache_stats_breakdown[L2_WRBK_ACC][MSHR_HIT] = 0
	Total_core_cache_stats_breakdown[INST_ACC_R][HIT] = 0
	Total_core_cache_stats_breakdown[INST_ACC_R][HIT_RESERVED] = 0
	Total_core_cache_stats_breakdown[INST_ACC_R][MISS] = 0
	Total_core_cache_stats_breakdown[INST_ACC_R][RESERVATION_FAIL] = 0
	Total_core_cache_stats_breakdown[INST_ACC_R][SECTOR_MISS] = 0
	Total_core_cache_stats_breakdown[INST_ACC_R][MSHR_HIT] = 0
	Total_core_cache_stats_breakdown[L1_WR_ALLOC_R][HIT] = 0
	Total_core_cache_stats_breakdown[L1_WR_ALLOC_R][HIT_RESERVED] = 0
	Total_core_cache_stats_breakdown[L1_WR_ALLOC_R][MISS] = 0
	Total_core_cache_stats_breakdown[L1_WR_ALLOC_R][RESERVATION_FAIL] = 0
	Total_core_cache_stats_breakdown[L1_WR_ALLOC_R][SECTOR_MISS] = 0
	Total_core_cache_stats_breakdown[L1_WR_ALLOC_R][MSHR_HIT] = 0
	Total_core_cache_stats_breakdown[L2_WR_ALLOC_R][HIT] = 0
	Total_core_cache_stats_breakdown[L2_WR_ALLOC_R][HIT_RESERVED] = 0
	Total_core_cache_stats_breakdown[L2_WR_ALLOC_R][MISS] = 0
	Total_core_cache_stats_breakdown[L2_WR_ALLOC_R][RESERVATION_FAIL] = 0
	Total_core_cache_stats_breakdown[L2_WR_ALLOC_R][SECTOR_MISS] = 0
	Total_core_cache_stats_breakdown[L2_WR_ALLOC_R][MSHR_HIT] = 0

Total_core_cache_fail_stats:
ctas_completed 4, Shader 0 warp_id issue ditsribution:
warp_id:
0, 1, 2, 3, 4, 5, 6, 7, 8, 9, 10, 11, 12, 13, 14, 15, 
distro:
25, 24, 24, 25, 24, 24, 24, 24, 24, 24, 24, 24, 24, 24, 24, 24, 
gpgpu_n_tot_thrd_icount = 45056
gpgpu_n_tot_w_icount = 1472
gpgpu_n_stall_shd_mem = 576
gpgpu_n_mem_read_local = 0
gpgpu_n_mem_write_local = 0
gpgpu_n_mem_read_global = 512
gpgpu_n_mem_write_global = 256
gpgpu_n_mem_texture = 0
gpgpu_n_mem_const = 0
gpgpu_n_load_insn  = 4096
gpgpu_n_store_insn = 2048
gpgpu_n_shmem_insn = 0
gpgpu_n_sstarr_insn = 0
gpgpu_n_tex_insn = 0
gpgpu_n_const_mem_insn = 0
gpgpu_n_param_mem_insn = 0
gpgpu_n_shmem_bkconflict = 0
gpgpu_n_cache_bkconflict = 0
gpgpu_n_intrawarp_mshr_merge = 0
gpgpu_n_cmem_portconflict = 0
gpgpu_stall_shd_mem[c_mem][resource_stall] = 0
gpgpu_stall_shd_mem[s_mem][bk_conf] = 0
gpgpu_stall_shd_mem[gl_mem][resource_stall] = 0
gpgpu_stall_shd_mem[gl_mem][coal_stall] = 576
gpgpu_stall_shd_mem[gl_mem][data_port_stall] = 0
gpu_reg_bank_conflict_stalls = 0
Warp Occupancy Distribution:
Stall:936	W0_Idle:2392	W0_Scoreboard:3448	W1:0	W2:0	W3:0	W4:0	W5:0	W6:0	W7:0	W8:0	W9:0	W10:0	W11:0	W12:0	W13:0	W14:0	W15:0	W16:0	W17:0	W18:0	W19:0	W20:0	W21:0	W22:0	W23:0	W24:0	W25:0	W26:0	W27:0	W28:0	W29:0	W30:0	W31:0	W32:1408
single_issue_nums: WS0:328	WS1:336	WS2:336	WS3:328	
dual_issue_nums: WS0:20	WS1:16	WS2:16	WS3:20	
traffic_breakdown_coretomem[GLOBAL_ACC_R] = 4096 {8:512,}
traffic_breakdown_coretomem[GLOBAL_ACC_W] = 10240 {40:256,}
traffic_breakdown_memtocore[GLOBAL_ACC_R] = 20480 {40:512,}
traffic_breakdown_memtocore[GLOBAL_ACC_W] = 2048 {8:256,}
maxmflatency = 158 
max_icnt2mem_latency = 29 
maxmrqlatency = 0 
max_icnt2sh_latency = 7 
averagemflatency = 142 
avg_icnt2mem_latency = 13 
avg_icnt2sh_latency = 7 
mrq_lat_table:0 	0 	0 	0 	0 	0 	0 	0 	0 	0 	0 	0 	0 	0 	0 	0 	0 	0 	0 	0 	0 	0 	0 	0 	0 	0 	0 	0 	0 	0 	0 	0 	
dq_lat_table:0 	0 	0 	0 	0 	0 	0 	0 	0 	0 	0 	0 	0 	0 	0 	0 	0 	0 	0 	0 	0 	0 	0 	0 	0 	0 	0 	0 	0 	0 	0 	0 	
mf_lat_table:0 	0 	0 	0 	0 	0 	0 	768 	0 	0 	0 	0 	0 	0 	0 	0 	0 	0 	0 	0 	0 	0 	0 	0 	0 	0 	0 	0 	0 	0 	0 	0 	
icnt2mem_lat_table:0 	0 	230 	293 	245 	0 	0 	0 	0 	0 	0 	0 	0 	0 	0 	0 	0 	0 	0 	0 	0 	0 	0 	0 	
icnt2sh_lat_table:0 	0 	768 	0 	0 	0 	0 	0 	0 	0 	0 	0 	0 	0 	0 	0 	0 	0 	0 	0 	0 	0 	0 	0 	
mf_lat_pw_table:0 	0 	0 	0 	0 	0 	0 	1 	0 	0 	0 	0 	0 	0 	0 	0 	0 	0 	0 	0 	0 	0 	0 	0 	0 	0 	0 	0 	0 	0 	0 	0 	
maximum concurrent accesses to same row:
dram[0]:         0         0         0         0         0         0         0         0         0         0         0         0         0         0         0         0 
dram[1]:         0         0         0         0         0         0         0         0         0         0         0         0         0         0         0         0 
dram[2]:         0         0         0         0         0         0         0         0         0         0         0         0         0         0         0         0 
dram[3]:         0         0         0         0         0         0         0         0         0         0         0         0         0         0         0         0 
dram[4]:         0         0         0         0         0         0         0         0         0         0         0         0         0         0         0         0 
dram[5]:         0         0         0         0         0         0         0         0         0         0         0         0         0         0         0         0 
dram[6]:         0         0         0         0         0         0         0         0         0         0         0         0         0         0         0         0 
dram[7]:         0         0         0         0         0         0         0         0         0         0         0         0         0         0         0         0 
dram[8]:         0         0         0         0         0         0         0         0         0         0         0         0         0         0         0         0 
dram[9]:         0         0         0         0         0         0         0         0         0         0         0         0         0         0         0         0 
dram[10]:         0         0         0         0         0         0         0         0         0         0         0         0         0         0         0         0 
dram[11]:         0         0         0         0         0         0         0         0         0         0         0         0         0         0         0         0 
maximum service time to same row:
dram[0]:         0         0         0         0         0         0         0         0         0         0         0         0         0         0         0         0 
dram[1]:         0         0         0         0         0         0         0         0         0         0         0         0         0         0         0         0 
dram[2]:         0         0         0         0         0         0         0         0         0         0         0         0         0         0         0         0 
dram[3]:         0         0         0         0         0         0         0         0         0         0         0         0         0         0         0         0 
dram[4]:         0         0         0         0         0         0         0         0         0         0         0         0         0         0         0         0 
dram[5]:         0         0         0         0         0         0         0         0         0         0         0         0         0         0         0         0 
dram[6]:         0         0         0         0         0         0         0         0         0         0         0         0         0         0         0         0 
dram[7]:         0         0         0         0         0         0         0         0         0         0         0         0         0         0         0         0 
dram[8]:         0         0         0         0         0         0         0         0         0         0         0         0         0         0         0         0 
dram[9]:         0         0         0         0         0         0         0         0         0         0         0         0         0         0         0         0 
dram[10]:         0         0         0         0         0         0         0         0         0         0         0         0         0         0         0         0 
dram[11]:         0         0         0         0         0         0         0         0         0         0         0         0         0         0         0         0 
average row accesses per activate:
dram[0]:      -nan      -nan      -nan      -nan      -nan      -nan      -nan      -nan      -nan      -nan      -nan      -nan      -nan      -nan      -nan      -nan 
dram[1]:      -nan      -nan      -nan      -nan      -nan      -nan      -nan      -nan      -nan      -nan      -nan      -nan      -nan      -nan      -nan      -nan 
dram[2]:      -nan      -nan      -nan      -nan      -nan      -nan      -nan      -nan      -nan      -nan      -nan      -nan      -nan      -nan      -nan      -nan 
dram[3]:      -nan      -nan      -nan      -nan      -nan      -nan      -nan      -nan      -nan      -nan      -nan      -nan      -nan      -nan      -nan      -nan 
dram[4]:      -nan      -nan      -nan      -nan      -nan      -nan      -nan      -nan      -nan      -nan      -nan      -nan      -nan      -nan      -nan      -nan 
dram[5]:      -nan      -nan      -nan      -nan      -nan      -nan      -nan      -nan      -nan      -nan      -nan      -nan      -nan      -nan      -nan      -nan 
dram[6]:      -nan      -nan      -nan      -nan      -nan      -nan      -nan      -nan      -nan      -nan      -nan      -nan      -nan      -nan      -nan      -nan 
dram[7]:      -nan      -nan      -nan      -nan      -nan      -nan      -nan      -nan      -nan      -nan      -nan      -nan      -nan      -nan      -nan      -nan 
dram[8]:      -nan      -nan      -nan      -nan      -nan      -nan      -nan      -nan      -nan      -nan      -nan      -nan      -nan      -nan      -nan      -nan 
dram[9]:      -nan      -nan      -nan      -nan      -nan      -nan      -nan      -nan      -nan      -nan      -nan      -nan      -nan      -nan      -nan      -nan 
dram[10]:      -nan      -nan      -nan      -nan      -nan      -nan      -nan      -nan      -nan      -nan      -nan      -nan      -nan      -nan      -nan      -nan 
dram[11]:      -nan      -nan      -nan      -nan      -nan      -nan      -nan      -nan      -nan      -nan      -nan      -nan      -nan      -nan      -nan      -nan 
average row locality = 0/0 = -nan
number of total memory accesses made:
dram[0]:         0         0         0         0         0         0         0         0         0         0         0         0         0         0         0         0 
dram[1]:         0         0         0         0         0         0         0         0         0         0         0         0         0         0         0         0 
dram[2]:         0         0         0         0         0         0         0         0         0         0         0         0         0         0         0         0 
dram[3]:         0         0         0         0         0         0         0         0         0         0         0         0         0         0         0         0 
dram[4]:         0         0         0         0         0         0         0         0         0         0         0         0         0         0         0         0 
dram[5]:         0         0         0         0         0         0         0         0         0         0         0         0         0         0         0         0 
dram[6]:         0         0         0         0         0         0         0         0         0         0         0         0         0         0         0         0 
dram[7]:         0         0         0         0         0         0         0         0         0         0         0         0         0         0         0         0 
dram[8]:         0         0         0         0         0         0         0         0         0         0         0         0         0         0         0         0 
dram[9]:         0         0         0         0         0         0         0         0         0         0         0         0         0         0         0         0 
dram[10]:         0         0         0         0         0         0         0         0         0         0         0         0         0         0         0         0 
dram[11]:         0         0         0         0         0         0         0         0         0         0         0         0         0         0         0         0 
total accesses: 0
min_bank_accesses = 0!
min_chip_accesses = 0!
number of total read accesses:
dram[0]:         0         0         0         0         0         0         0         0         0         0         0         0         0         0         0         0 
dram[1]:         0         0         0         0         0         0         0         0         0         0         0         0         0         0         0         0 
dram[2]:         0         0         0         0         0         0         0         0         0         0         0         0         0         0         0         0 
dram[3]:         0         0         0         0         0         0         0         0         0         0         0         0         0         0         0         0 
dram[4]:         0         0         0         0         0         0         0         0         0         0         0         0         0         0         0         0 
dram[5]:         0         0         0         0         0         0         0         0         0         0         0         0         0         0         0         0 
dram[6]:         0         0         0         0         0         0         0         0         0         0         0         0         0         0         0         0 
dram[7]:         0         0         0         0         0         0         0         0         0         0         0         0         0         0         0         0 
dram[8]:         0         0         0         0         0         0         0         0         0         0         0         0         0         0         0         0 
dram[9]:         0         0         0         0         0         0         0         0         0         0         0         0         0         0         0         0 
dram[10]:         0         0         0         0         0         0         0         0         0         0         0         0         0         0         0         0 
dram[11]:         0         0         0         0         0         0         0         0         0         0         0         0         0         0         0         0 
total dram reads = 0
min_bank_accesses = 0!
min_chip_accesses = 0!
number of total write accesses:
dram[0]:         0         0         0         0         0         0         0         0         0         0         0         0         0         0         0         0 
dram[1]:         0         0         0         0         0         0         0         0         0         0         0         0         0         0         0         0 
dram[2]:         0         0         0         0         0         0         0         0         0         0         0         0         0         0         0         0 
dram[3]:         0         0         0         0         0         0         0         0         0         0         0         0         0         0         0         0 
dram[4]:         0         0         0         0         0         0         0         0         0         0         0         0         0         0         0         0 
dram[5]:         0         0         0         0         0         0         0         0         0         0         0         0         0         0         0         0 
dram[6]:         0         0         0         0         0         0         0         0         0         0         0         0         0         0         0         0 
dram[7]:         0         0         0         0         0         0         0         0         0         0         0         0         0         0         0         0 
dram[8]:         0         0         0         0         0         0         0         0         0         0         0         0         0         0         0         0 
dram[9]:         0         0         0         0         0         0         0         0         0         0         0         0         0         0         0         0 
dram[10]:         0         0         0         0         0         0         0         0         0         0         0         0         0         0         0         0 
dram[11]:         0         0         0         0         0         0         0         0         0         0         0         0         0         0         0         0 
total dram writes = 0
min_bank_accesses = 0!
min_chip_accesses = 0!
average mf latency per bank:
dram[0]:     none      none      none      none      none      none      none      none      none      none      none      none      none      none      none      none  
dram[1]:     none      none      none      none      none      none      none      none      none      none      none      none      none      none      none      none  
dram[2]:     none      none      none      none      none      none      none      none      none      none      none      none      none      none      none      none  
dram[3]:     none      none      none      none      none      none      none      none      none      none      none      none      none      none      none      none  
dram[4]:     none      none      none      none      none      none      none      none      none      none      none      none      none      none      none      none  
dram[5]:     none      none      none      none      none      none      none      none      none      none      none      none      none      none      none      none  
dram[6]:     none      none      none      none      none      none      none      none      none      none      none      none      none      none      none      none  
dram[7]:     none      none      none      none      none      none      none      none      none      none      none      none      none      none      none      none  
dram[8]:     none      none      none      none      none      none      none      none      none      none      none      none      none      none      none      none  
dram[9]:     none      none      none      none      none      none      none      none      none      none      none      none      none      none      none      none  
dram[10]:     none      none      none      none      none      none      none      none      none      none      none      none      none      none      none      none  
dram[11]:     none      none      none      none      none      none      none      none      none      none      none      none      none      none      none      none  
maximum mf latency per bank:
dram[0]:          0         0         0         0         0         0         0         0         0         0       143       151         0         0         0         0
dram[1]:          0         0         0         0         0         0         0         0         0         0       153       154         0         0         0         0
dram[2]:          0         0         0         0         0         0         0         0         0         0       157       146         0         0         0         0
dram[3]:          0         0         0         0         0         0         0         0         0         0       145       146         0         0         0         0
dram[4]:          0         0         0         0         0         0         0         0         0         0       158       151         0         0         0         0
dram[5]:          0         0         0         0         0         0         0         0         0         0       153       158         0         0         0         0
dram[6]:          0         0         0         0         0         0         0         0         0         0       148       151         0         0         0         0
dram[7]:          0         0         0         0         0         0         0         0         0         0       158       158         0         0         0         0
dram[8]:          0         0         0         0         0         0         0         0         0         0       151       151         0         0         0         0
dram[9]:          0         0         0         0         0         0         0         0         0         0       151       153         0         0         0         0
dram[10]:          0         0         0         0         0         0         0         0         0         0       158       158         0         0         0         0
dram[11]:          0         0         0         0         0         0         0         0         0         0       139       153         0         0         0         0
Memory Partition 0: 
Cache L2_bank_000:
MSHR contents

Cache L2_bank_001:
MSHR contents

In Dram Latency Queue (total = 0): 
DRAM[0]: 16 bks, busW=4 BL=8 CL=16, tRRD=8 tCCD=2, tRCD=16 tRAS=37 tRP=16 tRC=52
n_cmd=9725 n_nop=9725 n_act=0 n_pre=0 n_ref_event=0 n_req=0 n_rd=0 n_rd_L2_A=0 n_write=0 n_wr_bk=0 bw_util=0
n_activity=0 dram_eff=-nan
bk0: 0a 9725i bk1: 0a 9725i bk2: 0a 9725i bk3: 0a 9725i bk4: 0a 9725i bk5: 0a 9725i bk6: 0a 9725i bk7: 0a 9725i bk8: 0a 9725i bk9: 0a 9725i bk10: 0a 9725i bk11: 0a 9725i bk12: 0a 9725i bk13: 0a 9725i bk14: 0a 9725i bk15: 0a 9725i 

------------------------------------------------------------------------

Row_Buffer_Locality = -nan
Row_Buffer_Locality_read = -nan
Row_Buffer_Locality_write = -nan
Bank_Level_Parallism = -nan
Bank_Level_Parallism_Col = -nan
Bank_Level_Parallism_Ready = -nan
write_to_read_ratio_blp_rw_average = -nan
GrpLevelPara = -nan 

BW Util details:
bwutil = 0.000000 
total_CMD = 9725 
util_bw = 0 
Wasted_Col = 0 
Wasted_Row = 0 
Idle = 9725 

BW Util Bottlenecks: 
RCDc_limit = 0 
RCDWRc_limit = 0 
WTRc_limit = 0 
RTWc_limit = 0 
CCDLc_limit = 0 
rwq = 0 
CCDLc_limit_alone = 0 
WTRc_limit_alone = 0 
RTWc_limit_alone = 0 

Commands details: 
total_CMD = 9725 
n_nop = 9725 
Read = 0 
Write = 0 
L2_Alloc = 0 
L2_WB = 0 
n_act = 0 
n_pre = 0 
n_ref = 0 
n_req = 0 
total_req = 0 

Dual Bus Interface Util: 
issued_total_row = 0 
issued_total_col = 0 
Row_Bus_Util =  0.000000 
CoL_Bus_Util = 0.000000 
Either_Row_CoL_Bus_Util = 0.000000 
Issued_on_Two_Bus_Simul_Util = 0.000000 
issued_two_Eff = -nan 
queue_avg = 0.000000 


dram_util_bins: 0 0 0 0 0 0 0 0 0 0
dram_eff_bins: 0 0 0 0 0 0 0 0 0 0
mrqq: max=0 avg=0
Memory Partition 1: 
Cache L2_bank_002:
MSHR contents

Cache L2_bank_003:
MSHR contents

In Dram Latency Queue (total = 0): 
DRAM[1]: 16 bks, busW=4 BL=8 CL=16, tRRD=8 tCCD=2, tRCD=16 tRAS=37 tRP=16 tRC=52
n_cmd=9725 n_nop=9725 n_act=0 n_pre=0 n_ref_event=0 n_req=0 n_rd=0 n_rd_L2_A=0 n_write=0 n_wr_bk=0 bw_util=0
n_activity=0 dram_eff=-nan
bk0: 0a 9725i bk1: 0a 9725i bk2: 0a 9725i bk3: 0a 9725i bk4: 0a 9725i bk5: 0a 9725i bk6: 0a 9725i bk7: 0a 9725i bk8: 0a 9725i bk9: 0a 9725i bk10: 0a 9725i bk11: 0a 9725i bk12: 0a 9725i bk13: 0a 9725i bk14: 0a 9725i bk15: 0a 9725i 

------------------------------------------------------------------------

Row_Buffer_Locality = -nan
Row_Buffer_Locality_read = -nan
Row_Buffer_Locality_write = -nan
Bank_Level_Parallism = -nan
Bank_Level_Parallism_Col = 0.000000
Bank_Level_Parallism_Ready = -nan
write_to_read_ratio_blp_rw_average = 0.000000
GrpLevelPara = 0.000000 

BW Util details:
bwutil = 0.000000 
total_CMD = 9725 
util_bw = 0 
Wasted_Col = 0 
Wasted_Row = 0 
Idle = 9725 

BW Util Bottlenecks: 
RCDc_limit = 0 
RCDWRc_limit = 0 
WTRc_limit = 0 
RTWc_limit = 0 
CCDLc_limit = 0 
rwq = 0 
CCDLc_limit_alone = 0 
WTRc_limit_alone = 0 
RTWc_limit_alone = 0 

Commands details: 
total_CMD = 9725 
n_nop = 9725 
Read = 0 
Write = 0 
L2_Alloc = 0 
L2_WB = 0 
n_act = 0 
n_pre = 0 
n_ref = 0 
n_req = 0 
total_req = 0 

Dual Bus Interface Util: 
issued_total_row = 0 
issued_total_col = 0 
Row_Bus_Util =  0.000000 
CoL_Bus_Util = 0.000000 
Either_Row_CoL_Bus_Util = 0.000000 
Issued_on_Two_Bus_Simul_Util = 0.000000 
issued_two_Eff = -nan 
queue_avg = 0.000000 


dram_util_bins: 0 0 0 0 0 0 0 0 0 0
dram_eff_bins: 0 0 0 0 0 0 0 0 0 0
mrqq: max=0 avg=0
Memory Partition 2: 
Cache L2_bank_004:
MSHR contents

Cache L2_bank_005:
MSHR contents

In Dram Latency Queue (total = 0): 
DRAM[2]: 16 bks, busW=4 BL=8 CL=16, tRRD=8 tCCD=2, tRCD=16 tRAS=37 tRP=16 tRC=52
n_cmd=9725 n_nop=9725 n_act=0 n_pre=0 n_ref_event=0 n_req=0 n_rd=0 n_rd_L2_A=0 n_write=0 n_wr_bk=0 bw_util=0
n_activity=0 dram_eff=-nan
bk0: 0a 9725i bk1: 0a 9725i bk2: 0a 9725i bk3: 0a 9725i bk4: 0a 9725i bk5: 0a 9725i bk6: 0a 9725i bk7: 0a 9725i bk8: 0a 9725i bk9: 0a 9725i bk10: 0a 9725i bk11: 0a 9725i bk12: 0a 9725i bk13: 0a 9725i bk14: 0a 9725i bk15: 0a 9725i 

------------------------------------------------------------------------

Row_Buffer_Locality = -nan
Row_Buffer_Locality_read = -nan
Row_Buffer_Locality_write = -nan
Bank_Level_Parallism = -nan
Bank_Level_Parallism_Col = -nan
Bank_Level_Parallism_Ready = -nan
write_to_read_ratio_blp_rw_average = -nan
GrpLevelPara = -nan 

BW Util details:
bwutil = 0.000000 
total_CMD = 9725 
util_bw = 0 
Wasted_Col = 0 
Wasted_Row = 0 
Idle = 9725 

BW Util Bottlenecks: 
RCDc_limit = 0 
RCDWRc_limit = 0 
WTRc_limit = 0 
RTWc_limit = 0 
CCDLc_limit = 0 
rwq = 0 
CCDLc_limit_alone = 0 
WTRc_limit_alone = 0 
RTWc_limit_alone = 0 

Commands details: 
total_CMD = 9725 
n_nop = 9725 
Read = 0 
Write = 0 
L2_Alloc = 0 
L2_WB = 0 
n_act = 0 
n_pre = 0 
n_ref = 0 
n_req = 0 
total_req = 0 

Dual Bus Interface Util: 
issued_total_row = 0 
issued_total_col = 0 
Row_Bus_Util =  0.000000 
CoL_Bus_Util = 0.000000 
Either_Row_CoL_Bus_Util = 0.000000 
Issued_on_Two_Bus_Simul_Util = 0.000000 
issued_two_Eff = -nan 
queue_avg = 0.000000 


dram_util_bins: 0 0 0 0 0 0 0 0 0 0
dram_eff_bins: 0 0 0 0 0 0 0 0 0 0
mrqq: max=0 avg=0
Memory Partition 3: 
Cache L2_bank_006:
MSHR contents

Cache L2_bank_007:
MSHR contents

In Dram Latency Queue (total = 0): 
DRAM[3]: 16 bks, busW=4 BL=8 CL=16, tRRD=8 tCCD=2, tRCD=16 tRAS=37 tRP=16 tRC=52
n_cmd=9725 n_nop=9725 n_act=0 n_pre=0 n_ref_event=0 n_req=0 n_rd=0 n_rd_L2_A=0 n_write=0 n_wr_bk=0 bw_util=0
n_activity=0 dram_eff=-nan
bk0: 0a 9725i bk1: 0a 9725i bk2: 0a 9725i bk3: 0a 9725i bk4: 0a 9725i bk5: 0a 9725i bk6: 0a 9725i bk7: 0a 9725i bk8: 0a 9725i bk9: 0a 9725i bk10: 0a 9725i bk11: 0a 9725i bk12: 0a 9725i bk13: 0a 9725i bk14: 0a 9725i bk15: 0a 9725i 

------------------------------------------------------------------------

Row_Buffer_Locality = -nan
Row_Buffer_Locality_read = -nan
Row_Buffer_Locality_write = -nan
Bank_Level_Parallism = -nan
Bank_Level_Parallism_Col = -nan
Bank_Level_Parallism_Ready = -nan
write_to_read_ratio_blp_rw_average = -nan
GrpLevelPara = -nan 

BW Util details:
bwutil = 0.000000 
total_CMD = 9725 
util_bw = 0 
Wasted_Col = 0 
Wasted_Row = 0 
Idle = 9725 

BW Util Bottlenecks: 
RCDc_limit = 0 
RCDWRc_limit = 0 
WTRc_limit = 0 
RTWc_limit = 0 
CCDLc_limit = 0 
rwq = 0 
CCDLc_limit_alone = 0 
WTRc_limit_alone = 0 
RTWc_limit_alone = 0 

Commands details: 
total_CMD = 9725 
n_nop = 9725 
Read = 0 
Write = 0 
L2_Alloc = 0 
L2_WB = 0 
n_act = 0 
n_pre = 0 
n_ref = 0 
n_req = 0 
total_req = 0 

Dual Bus Interface Util: 
issued_total_row = 0 
issued_total_col = 0 
Row_Bus_Util =  0.000000 
CoL_Bus_Util = 0.000000 
Either_Row_CoL_Bus_Util = 0.000000 
Issued_on_Two_Bus_Simul_Util = 0.000000 
issued_two_Eff = -nan 
queue_avg = 0.000000 


dram_util_bins: 0 0 0 0 0 0 0 0 0 0
dram_eff_bins: 0 0 0 0 0 0 0 0 0 0
mrqq: max=0 avg=0
Memory Partition 4: 
Cache L2_bank_008:
MSHR contents

Cache L2_bank_009:
MSHR contents

In Dram Latency Queue (total = 0): 
DRAM[4]: 16 bks, busW=4 BL=8 CL=16, tRRD=8 tCCD=2, tRCD=16 tRAS=37 tRP=16 tRC=52
n_cmd=9725 n_nop=9725 n_act=0 n_pre=0 n_ref_event=0 n_req=0 n_rd=0 n_rd_L2_A=0 n_write=0 n_wr_bk=0 bw_util=0
n_activity=0 dram_eff=-nan
bk0: 0a 9725i bk1: 0a 9725i bk2: 0a 9725i bk3: 0a 9725i bk4: 0a 9725i bk5: 0a 9725i bk6: 0a 9725i bk7: 0a 9725i bk8: 0a 9725i bk9: 0a 9725i bk10: 0a 9725i bk11: 0a 9725i bk12: 0a 9725i bk13: 0a 9725i bk14: 0a 9725i bk15: 0a 9725i 

------------------------------------------------------------------------

Row_Buffer_Locality = -nan
Row_Buffer_Locality_read = -nan
Row_Buffer_Locality_write = -nan
Bank_Level_Parallism = -nan
Bank_Level_Parallism_Col = -nan
Bank_Level_Parallism_Ready = -nan
write_to_read_ratio_blp_rw_average = -nan
GrpLevelPara = -nan 

BW Util details:
bwutil = 0.000000 
total_CMD = 9725 
util_bw = 0 
Wasted_Col = 0 
Wasted_Row = 0 
Idle = 9725 

BW Util Bottlenecks: 
RCDc_limit = 0 
RCDWRc_limit = 0 
WTRc_limit = 0 
RTWc_limit = 0 
CCDLc_limit = 0 
rwq = 0 
CCDLc_limit_alone = 0 
WTRc_limit_alone = 0 
RTWc_limit_alone = 0 

Commands details: 
total_CMD = 9725 
n_nop = 9725 
Read = 0 
Write = 0 
L2_Alloc = 0 
L2_WB = 0 
n_act = 0 
n_pre = 0 
n_ref = 0 
n_req = 0 
total_req = 0 

Dual Bus Interface Util: 
issued_total_row = 0 
issued_total_col = 0 
Row_Bus_Util =  0.000000 
CoL_Bus_Util = 0.000000 
Either_Row_CoL_Bus_Util = 0.000000 
Issued_on_Two_Bus_Simul_Util = 0.000000 
issued_two_Eff = -nan 
queue_avg = 0.000000 


dram_util_bins: 0 0 0 0 0 0 0 0 0 0
dram_eff_bins: 0 0 0 0 0 0 0 0 0 0
mrqq: max=0 avg=0
Memory Partition 5: 
Cache L2_bank_010:
MSHR contents

Cache L2_bank_011:
MSHR contents

In Dram Latency Queue (total = 0): 
DRAM[5]: 16 bks, busW=4 BL=8 CL=16, tRRD=8 tCCD=2, tRCD=16 tRAS=37 tRP=16 tRC=52
n_cmd=9725 n_nop=9725 n_act=0 n_pre=0 n_ref_event=0 n_req=0 n_rd=0 n_rd_L2_A=0 n_write=0 n_wr_bk=0 bw_util=0
n_activity=0 dram_eff=-nan
bk0: 0a 9725i bk1: 0a 9725i bk2: 0a 9725i bk3: 0a 9725i bk4: 0a 9725i bk5: 0a 9725i bk6: 0a 9725i bk7: 0a 9725i bk8: 0a 9725i bk9: 0a 9725i bk10: 0a 9725i bk11: 0a 9725i bk12: 0a 9725i bk13: 0a 9725i bk14: 0a 9725i bk15: 0a 9725i 

------------------------------------------------------------------------

Row_Buffer_Locality = -nan
Row_Buffer_Locality_read = -nan
Row_Buffer_Locality_write = -nan
Bank_Level_Parallism = -nan
Bank_Level_Parallism_Col = -nan
Bank_Level_Parallism_Ready = -nan
write_to_read_ratio_blp_rw_average = -nan
GrpLevelPara = -nan 

BW Util details:
bwutil = 0.000000 
total_CMD = 9725 
util_bw = 0 
Wasted_Col = 0 
Wasted_Row = 0 
Idle = 9725 

BW Util Bottlenecks: 
RCDc_limit = 0 
RCDWRc_limit = 0 
WTRc_limit = 0 
RTWc_limit = 0 
CCDLc_limit = 0 
rwq = 0 
CCDLc_limit_alone = 0 
WTRc_limit_alone = 0 
RTWc_limit_alone = 0 

Commands details: 
total_CMD = 9725 
n_nop = 9725 
Read = 0 
Write = 0 
L2_Alloc = 0 
L2_WB = 0 
n_act = 0 
n_pre = 0 
n_ref = 0 
n_req = 0 
total_req = 0 

Dual Bus Interface Util: 
issued_total_row = 0 
issued_total_col = 0 
Row_Bus_Util =  0.000000 
CoL_Bus_Util = 0.000000 
Either_Row_CoL_Bus_Util = 0.000000 
Issued_on_Two_Bus_Simul_Util = 0.000000 
issued_two_Eff = -nan 
queue_avg = 0.000000 


dram_util_bins: 0 0 0 0 0 0 0 0 0 0
dram_eff_bins: 0 0 0 0 0 0 0 0 0 0
mrqq: max=0 avg=0
Memory Partition 6: 
Cache L2_bank_012:
MSHR contents

Cache L2_bank_013:
MSHR contents

In Dram Latency Queue (total = 0): 
DRAM[6]: 16 bks, busW=4 BL=8 CL=16, tRRD=8 tCCD=2, tRCD=16 tRAS=37 tRP=16 tRC=52
n_cmd=9725 n_nop=9725 n_act=0 n_pre=0 n_ref_event=0 n_req=0 n_rd=0 n_rd_L2_A=0 n_write=0 n_wr_bk=0 bw_util=0
n_activity=0 dram_eff=-nan
bk0: 0a 9725i bk1: 0a 9725i bk2: 0a 9725i bk3: 0a 9725i bk4: 0a 9725i bk5: 0a 9725i bk6: 0a 9725i bk7: 0a 9725i bk8: 0a 9725i bk9: 0a 9725i bk10: 0a 9725i bk11: 0a 9725i bk12: 0a 9725i bk13: 0a 9725i bk14: 0a 9725i bk15: 0a 9725i 

------------------------------------------------------------------------

Row_Buffer_Locality = -nan
Row_Buffer_Locality_read = -nan
Row_Buffer_Locality_write = -nan
Bank_Level_Parallism = -nan
Bank_Level_Parallism_Col = -nan
Bank_Level_Parallism_Ready = -nan
write_to_read_ratio_blp_rw_average = -nan
GrpLevelPara = -nan 

BW Util details:
bwutil = 0.000000 
total_CMD = 9725 
util_bw = 0 
Wasted_Col = 0 
Wasted_Row = 0 
Idle = 9725 

BW Util Bottlenecks: 
RCDc_limit = 0 
RCDWRc_limit = 0 
WTRc_limit = 0 
RTWc_limit = 0 
CCDLc_limit = 0 
rwq = 0 
CCDLc_limit_alone = 0 
WTRc_limit_alone = 0 
RTWc_limit_alone = 0 

Commands details: 
total_CMD = 9725 
n_nop = 9725 
Read = 0 
Write = 0 
L2_Alloc = 0 
L2_WB = 0 
n_act = 0 
n_pre = 0 
n_ref = 0 
n_req = 0 
total_req = 0 

Dual Bus Interface Util: 
issued_total_row = 0 
issued_total_col = 0 
Row_Bus_Util =  0.000000 
CoL_Bus_Util = 0.000000 
Either_Row_CoL_Bus_Util = 0.000000 
Issued_on_Two_Bus_Simul_Util = 0.000000 
issued_two_Eff = -nan 
queue_avg = 0.000000 


dram_util_bins: 0 0 0 0 0 0 0 0 0 0
dram_eff_bins: 0 0 0 0 0 0 0 0 0 0
mrqq: max=0 avg=0
Memory Partition 7: 
Cache L2_bank_014:
MSHR contents

Cache L2_bank_015:
MSHR contents

In Dram Latency Queue (total = 0): 
DRAM[7]: 16 bks, busW=4 BL=8 CL=16, tRRD=8 tCCD=2, tRCD=16 tRAS=37 tRP=16 tRC=52
n_cmd=9725 n_nop=9725 n_act=0 n_pre=0 n_ref_event=0 n_req=0 n_rd=0 n_rd_L2_A=0 n_write=0 n_wr_bk=0 bw_util=0
n_activity=0 dram_eff=-nan
bk0: 0a 9725i bk1: 0a 9725i bk2: 0a 9725i bk3: 0a 9725i bk4: 0a 9725i bk5: 0a 9725i bk6: 0a 9725i bk7: 0a 9725i bk8: 0a 9725i bk9: 0a 9725i bk10: 0a 9725i bk11: 0a 9725i bk12: 0a 9725i bk13: 0a 9725i bk14: 0a 9725i bk15: 0a 9725i 

------------------------------------------------------------------------

Row_Buffer_Locality = -nan
Row_Buffer_Locality_read = -nan
Row_Buffer_Locality_write = -nan
Bank_Level_Parallism = -nan
Bank_Level_Parallism_Col = -nan
Bank_Level_Parallism_Ready = -nan
write_to_read_ratio_blp_rw_average = -nan
GrpLevelPara = -nan 

BW Util details:
bwutil = 0.000000 
total_CMD = 9725 
util_bw = 0 
Wasted_Col = 0 
Wasted_Row = 0 
Idle = 9725 

BW Util Bottlenecks: 
RCDc_limit = 0 
RCDWRc_limit = 0 
WTRc_limit = 0 
RTWc_limit = 0 
CCDLc_limit = 0 
rwq = 0 
CCDLc_limit_alone = 0 
WTRc_limit_alone = 0 
RTWc_limit_alone = 0 

Commands details: 
total_CMD = 9725 
n_nop = 9725 
Read = 0 
Write = 0 
L2_Alloc = 0 
L2_WB = 0 
n_act = 0 
n_pre = 0 
n_ref = 0 
n_req = 0 
total_req = 0 

Dual Bus Interface Util: 
issued_total_row = 0 
issued_total_col = 0 
Row_Bus_Util =  0.000000 
CoL_Bus_Util = 0.000000 
Either_Row_CoL_Bus_Util = 0.000000 
Issued_on_Two_Bus_Simul_Util = 0.000000 
issued_two_Eff = -nan 
queue_avg = 0.000000 


dram_util_bins: 0 0 0 0 0 0 0 0 0 0
dram_eff_bins: 0 0 0 0 0 0 0 0 0 0
mrqq: max=0 avg=0
Memory Partition 8: 
Cache L2_bank_016:
MSHR contents

Cache L2_bank_017:
MSHR contents

In Dram Latency Queue (total = 0): 
DRAM[8]: 16 bks, busW=4 BL=8 CL=16, tRRD=8 tCCD=2, tRCD=16 tRAS=37 tRP=16 tRC=52
n_cmd=9725 n_nop=9725 n_act=0 n_pre=0 n_ref_event=0 n_req=0 n_rd=0 n_rd_L2_A=0 n_write=0 n_wr_bk=0 bw_util=0
n_activity=0 dram_eff=-nan
bk0: 0a 9725i bk1: 0a 9725i bk2: 0a 9725i bk3: 0a 9725i bk4: 0a 9725i bk5: 0a 9725i bk6: 0a 9725i bk7: 0a 9725i bk8: 0a 9725i bk9: 0a 9725i bk10: 0a 9725i bk11: 0a 9725i bk12: 0a 9725i bk13: 0a 9725i bk14: 0a 9725i bk15: 0a 9725i 

------------------------------------------------------------------------

Row_Buffer_Locality = -nan
Row_Buffer_Locality_read = -nan
Row_Buffer_Locality_write = -nan
Bank_Level_Parallism = -nan
Bank_Level_Parallism_Col = -nan
Bank_Level_Parallism_Ready = -nan
write_to_read_ratio_blp_rw_average = -nan
GrpLevelPara = -nan 

BW Util details:
bwutil = 0.000000 
total_CMD = 9725 
util_bw = 0 
Wasted_Col = 0 
Wasted_Row = 0 
Idle = 9725 

BW Util Bottlenecks: 
RCDc_limit = 0 
RCDWRc_limit = 0 
WTRc_limit = 0 
RTWc_limit = 0 
CCDLc_limit = 0 
rwq = 0 
CCDLc_limit_alone = 0 
WTRc_limit_alone = 0 
RTWc_limit_alone = 0 

Commands details: 
total_CMD = 9725 
n_nop = 9725 
Read = 0 
Write = 0 
L2_Alloc = 0 
L2_WB = 0 
n_act = 0 
n_pre = 0 
n_ref = 0 
n_req = 0 
total_req = 0 

Dual Bus Interface Util: 
issued_total_row = 0 
issued_total_col = 0 
Row_Bus_Util =  0.000000 
CoL_Bus_Util = 0.000000 
Either_Row_CoL_Bus_Util = 0.000000 
Issued_on_Two_Bus_Simul_Util = 0.000000 
issued_two_Eff = -nan 
queue_avg = 0.000000 


dram_util_bins: 0 0 0 0 0 0 0 0 0 0
dram_eff_bins: 0 0 0 0 0 0 0 0 0 0
mrqq: max=0 avg=0
Memory Partition 9: 
Cache L2_bank_018:
MSHR contents

Cache L2_bank_019:
MSHR contents

In Dram Latency Queue (total = 0): 
DRAM[9]: 16 bks, busW=4 BL=8 CL=16, tRRD=8 tCCD=2, tRCD=16 tRAS=37 tRP=16 tRC=52
n_cmd=9725 n_nop=9725 n_act=0 n_pre=0 n_ref_event=0 n_req=0 n_rd=0 n_rd_L2_A=0 n_write=0 n_wr_bk=0 bw_util=0
n_activity=0 dram_eff=-nan
bk0: 0a 9725i bk1: 0a 9725i bk2: 0a 9725i bk3: 0a 9725i bk4: 0a 9725i bk5: 0a 9725i bk6: 0a 9725i bk7: 0a 9725i bk8: 0a 9725i bk9: 0a 9725i bk10: 0a 9725i bk11: 0a 9725i bk12: 0a 9725i bk13: 0a 9725i bk14: 0a 9725i bk15: 0a 9725i 

------------------------------------------------------------------------

Row_Buffer_Locality = -nan
Row_Buffer_Locality_read = -nan
Row_Buffer_Locality_write = -nan
Bank_Level_Parallism = -nan
Bank_Level_Parallism_Col = -nan
Bank_Level_Parallism_Ready = -nan
write_to_read_ratio_blp_rw_average = -nan
GrpLevelPara = -nan 

BW Util details:
bwutil = 0.000000 
total_CMD = 9725 
util_bw = 0 
Wasted_Col = 0 
Wasted_Row = 0 
Idle = 9725 

BW Util Bottlenecks: 
RCDc_limit = 0 
RCDWRc_limit = 0 
WTRc_limit = 0 
RTWc_limit = 0 
CCDLc_limit = 0 
rwq = 0 
CCDLc_limit_alone = 0 
WTRc_limit_alone = 0 
RTWc_limit_alone = 0 

Commands details: 
total_CMD = 9725 
n_nop = 9725 
Read = 0 
Write = 0 
L2_Alloc = 0 
L2_WB = 0 
n_act = 0 
n_pre = 0 
n_ref = 0 
n_req = 0 
total_req = 0 

Dual Bus Interface Util: 
issued_total_row = 0 
issued_total_col = 0 
Row_Bus_Util =  0.000000 
CoL_Bus_Util = 0.000000 
Either_Row_CoL_Bus_Util = 0.000000 
Issued_on_Two_Bus_Simul_Util = 0.000000 
issued_two_Eff = -nan 
queue_avg = 0.000000 


dram_util_bins: 0 0 0 0 0 0 0 0 0 0
dram_eff_bins: 0 0 0 0 0 0 0 0 0 0
mrqq: max=0 avg=0
Memory Partition 10: 
Cache L2_bank_020:
MSHR contents

Cache L2_bank_021:
MSHR contents

In Dram Latency Queue (total = 0): 
DRAM[10]: 16 bks, busW=4 BL=8 CL=16, tRRD=8 tCCD=2, tRCD=16 tRAS=37 tRP=16 tRC=52
n_cmd=9725 n_nop=9725 n_act=0 n_pre=0 n_ref_event=0 n_req=0 n_rd=0 n_rd_L2_A=0 n_write=0 n_wr_bk=0 bw_util=0
n_activity=0 dram_eff=-nan
bk0: 0a 9725i bk1: 0a 9725i bk2: 0a 9725i bk3: 0a 9725i bk4: 0a 9725i bk5: 0a 9725i bk6: 0a 9725i bk7: 0a 9725i bk8: 0a 9725i bk9: 0a 9725i bk10: 0a 9725i bk11: 0a 9725i bk12: 0a 9725i bk13: 0a 9725i bk14: 0a 9725i bk15: 0a 9725i 

------------------------------------------------------------------------

Row_Buffer_Locality = -nan
Row_Buffer_Locality_read = -nan
Row_Buffer_Locality_write = -nan
Bank_Level_Parallism = -nan
Bank_Level_Parallism_Col = -nan
Bank_Level_Parallism_Ready = -nan
write_to_read_ratio_blp_rw_average = -nan
GrpLevelPara = -nan 

BW Util details:
bwutil = 0.000000 
total_CMD = 9725 
util_bw = 0 
Wasted_Col = 0 
Wasted_Row = 0 
Idle = 9725 

BW Util Bottlenecks: 
RCDc_limit = 0 
RCDWRc_limit = 0 
WTRc_limit = 0 
RTWc_limit = 0 
CCDLc_limit = 0 
rwq = 0 
CCDLc_limit_alone = 0 
WTRc_limit_alone = 0 
RTWc_limit_alone = 0 

Commands details: 
total_CMD = 9725 
n_nop = 9725 
Read = 0 
Write = 0 
L2_Alloc = 0 
L2_WB = 0 
n_act = 0 
n_pre = 0 
n_ref = 0 
n_req = 0 
total_req = 0 

Dual Bus Interface Util: 
issued_total_row = 0 
issued_total_col = 0 
Row_Bus_Util =  0.000000 
CoL_Bus_Util = 0.000000 
Either_Row_CoL_Bus_Util = 0.000000 
Issued_on_Two_Bus_Simul_Util = 0.000000 
issued_two_Eff = -nan 
queue_avg = 0.000000 


dram_util_bins: 0 0 0 0 0 0 0 0 0 0
dram_eff_bins: 0 0 0 0 0 0 0 0 0 0
mrqq: max=0 avg=0
Memory Partition 11: 
Cache L2_bank_022:
MSHR contents

Cache L2_bank_023:
MSHR contents

In Dram Latency Queue (total = 0): 
DRAM[11]: 16 bks, busW=4 BL=8 CL=16, tRRD=8 tCCD=2, tRCD=16 tRAS=37 tRP=16 tRC=52
n_cmd=9725 n_nop=9725 n_act=0 n_pre=0 n_ref_event=0 n_req=0 n_rd=0 n_rd_L2_A=0 n_write=0 n_wr_bk=0 bw_util=0
n_activity=0 dram_eff=-nan
bk0: 0a 9725i bk1: 0a 9725i bk2: 0a 9725i bk3: 0a 9725i bk4: 0a 9725i bk5: 0a 9725i bk6: 0a 9725i bk7: 0a 9725i bk8: 0a 9725i bk9: 0a 9725i bk10: 0a 9725i bk11: 0a 9725i bk12: 0a 9725i bk13: 0a 9725i bk14: 0a 9725i bk15: 0a 9725i 

------------------------------------------------------------------------

Row_Buffer_Locality = -nan
Row_Buffer_Locality_read = -nan
Row_Buffer_Locality_write = -nan
Bank_Level_Parallism = -nan
Bank_Level_Parallism_Col = -nan
Bank_Level_Parallism_Ready = -nan
write_to_read_ratio_blp_rw_average = -nan
GrpLevelPara = -nan 

BW Util details:
bwutil = 0.000000 
total_CMD = 9725 
util_bw = 0 
Wasted_Col = 0 
Wasted_Row = 0 
Idle = 9725 

BW Util Bottlenecks: 
RCDc_limit = 0 
RCDWRc_limit = 0 
WTRc_limit = 0 
RTWc_limit = 0 
CCDLc_limit = 0 
rwq = 0 
CCDLc_limit_alone = 0 
WTRc_limit_alone = 0 
RTWc_limit_alone = 0 

Commands details: 
total_CMD = 9725 
n_nop = 9725 
Read = 0 
Write = 0 
L2_Alloc = 0 
L2_WB = 0 
n_act = 0 
n_pre = 0 
n_ref = 0 
n_req = 0 
total_req = 0 

Dual Bus Interface Util: 
issued_total_row = 0 
issued_total_col = 0 
Row_Bus_Util =  0.000000 
CoL_Bus_Util = 0.000000 
Either_Row_CoL_Bus_Util = 0.000000 
Issued_on_Two_Bus_Simul_Util = 0.000000 
issued_two_Eff = -nan 
queue_avg = 0.000000 


dram_util_bins: 0 0 0 0 0 0 0 0 0 0
dram_eff_bins: 0 0 0 0 0 0 0 0 0 0
mrqq: max=0 avg=0

========= L2 cache stats =========
L2_cache_bank[0]: Access = 16, Miss = 4, Miss_rate = 0.250, Pending_hits = 0, Reservation_fails = 0
L2_cache_bank[1]: Access = 40, Miss = 20, Miss_rate = 0.500, Pending_hits = 0, Reservation_fails = 0
L2_cache_bank[2]: Access = 44, Miss = 12, Miss_rate = 0.273, Pending_hits = 0, Reservation_fails = 0
L2_cache_bank[3]: Access = 28, Miss = 16, Miss_rate = 0.571, Pending_hits = 0, Reservation_fails = 0
L2_cache_bank[4]: Access = 40, Miss = 20, Miss_rate = 0.500, Pending_hits = 0, Reservation_fails = 0
L2_cache_bank[5]: Access = 24, Miss = 16, Miss_rate = 0.667, Pending_hits = 0, Reservation_fails = 0
L2_cache_bank[6]: Access = 16, Miss = 4, Miss_rate = 0.250, Pending_hits = 0, Reservation_fails = 0
L2_cache_bank[7]: Access = 20, Miss = 0, Miss_rate = 0.000, Pending_hits = 0, Reservation_fails = 0
L2_cache_bank[8]: Access = 24, Miss = 8, Miss_rate = 0.333, Pending_hits = 0, Reservation_fails = 0
L2_cache_bank[9]: Access = 48, Miss = 4, Miss_rate = 0.083, Pending_hits = 0, Reservation_fails = 0
L2_cache_bank[10]: Access = 28, Miss = 8, Miss_rate = 0.286, Pending_hits = 0, Reservation_fails = 0
L2_cache_bank[11]: Access = 76, Miss = 40, Miss_rate = 0.526, Pending_hits = 0, Reservation_fails = 0
L2_cache_bank[12]: Access = 36, Miss = 8, Miss_rate = 0.222, Pending_hits = 0, Reservation_fails = 0
L2_cache_bank[13]: Access = 24, Miss = 12, Miss_rate = 0.500, Pending_hits = 0, Reservation_fails = 0
L2_cache_bank[14]: Access = 40, Miss = 8, Miss_rate = 0.200, Pending_hits = 0, Reservation_fails = 0
L2_cache_bank[15]: Access = 40, Miss = 16, Miss_rate = 0.400, Pending_hits = 0, Reservation_fails = 0
L2_cache_bank[16]: Access = 32, Miss = 20, Miss_rate = 0.625, Pending_hits = 0, Reservation_fails = 0
L2_cache_bank[17]: Access = 28, Miss = 4, Miss_rate = 0.143, Pending_hits = 0, Reservation_fails = 0
L2_cache_bank[18]: Access = 28, Miss = 8, Miss_rate = 0.286, Pending_hits = 0, Reservation_fails = 0
L2_cache_bank[19]: Access = 36, Miss = 4, Miss_rate = 0.111, Pending_hits = 0, Reservation_fails = 0
L2_cache_bank[20]: Access = 44, Miss = 12, Miss_rate = 0.273, Pending_hits = 0, Reservation_fails = 0
L2_cache_bank[21]: Access = 28, Miss = 4, Miss_rate = 0.143, Pending_hits = 0, Reservation_fails = 0
L2_cache_bank[22]: Access = 16, Miss = 0, Miss_rate = 0.000, Pending_hits = 0, Reservation_fails = 0
L2_cache_bank[23]: Access = 12, Miss = 8, Miss_rate = 0.667, Pending_hits = 0, Reservation_fails = 0
L2_total_cache_accesses = 768
L2_total_cache_misses = 256
L2_total_cache_miss_rate = 0.3333
L2_total_cache_pending_hits = 0
L2_total_cache_reservation_fails = 0
L2_total_cache_breakdown:
	L2_cache_stats_breakdown[GLOBAL_ACC_R][HIT] = 512
	L2_cache_stats_breakdown[GLOBAL_ACC_R][HIT_RESERVED] = 0
	L2_cache_stats_breakdown[GLOBAL_ACC_R][MISS] = 0
	L2_cache_stats_breakdown[GLOBAL_ACC_R][RESERVATION_FAIL] = 0
	L2_cache_stats_breakdown[GLOBAL_ACC_R][SECTOR_MISS] = 0
	L2_cache_stats_breakdown[GLOBAL_ACC_R][MSHR_HIT] = 0
	L2_cache_stats_breakdown[LOCAL_ACC_R][HIT] = 0
	L2_cache_stats_breakdown[LOCAL_ACC_R][HIT_RESERVED] = 0
[...]
thread block = 135,0,0
thread block = 136,0,0
thread block = 137,0,0
thread block = 138,0,0
thread block = 139,0,0
thread block = 140,0,0
thread block = 141,0,0
thread block = 142,0,0
thread block = 143,0,0
thread block = 144,0,0
thread block = 145,0,0
thread block = 146,0,0
thread block = 147,0,0
thread block = 148,0,0
thread block = 149,0,0
thread block = 150,0,0
thread block = 151,0,0
thread block = 152,0,0
thread block = 153,0,0
thread block = 154,0,0
thread block = 155,0,0
thread block = 156,0,0
thread block = 157,0,0
thread block = 158,0,0
thread block = 159,0,0
thread block = 160,0,0
thread block = 161,0,0
thread block = 162,0,0
thread block = 163,0,0
thread block = 164,0,0
thread block = 165,0,0
thread block = 166,0,0
thread block = 167,0,0
thread block = 168,0,0
thread block = 169,0,0
thread block = 170,0,0
thread block = 171,0,0
thread block = 172,0,0
thread block = 173,0,0
thread block = 174,0,0
thread block = 175,0,0
thread block = 176,0,0
thread block = 177,0,0
thread block = 178,0,0
thread block = 179,0,0
thread block = 180,0,0
thread block = 181,0,0
thread block = 182,0,0
thread block = 183,0,0
thread block = 184,0,0
thread block = 185,0,0
thread block = 186,0,0
thread block = 187,0,0
thread block = 188,0,0
thread block = 189,0,0
thread block = 190,0,0
thread block = 191,0,0
thread block = 192,0,0
thread block = 193,0,0
thread block = 194,0,0
thread block = 195,0,0
thread block = 196,0,0
thread block = 197,0,0
thread block = 198,0,0
thread block = 199,0,0
thread block = 200,0,0
thread block = 201,0,0
thread block = 202,0,0
thread block = 203,0,0
thread block = 204,0,0
thread block = 205,0,0
thread block = 206,0,0
thread block = 207,0,0
thread block = 208,0,0
thread block = 209,0,0
thread block = 210,0,0
thread block = 211,0,0
thread block = 212,0,0
thread block = 213,0,0
thread block = 214,0,0
thread block = 215,0,0
thread block = 216,0,0
thread block = 217,0,0
thread block = 218,0,0
thread block = 219,0,0
thread block = 220,0,0
thread block = 221,0,0
thread block = 222,0,0
thread block = 223,0,0
thread block = 224,0,0
thread block = 225,0,0
thread block = 226,0,0
thread block = 227,0,0
thread block = 228,0,0
thread block = 229,0,0
thread block = 230,0,0
thread block = 231,0,0
thread block = 232,0,0
thread block = 233,0,0
thread block = 234,0,0
thread block = 235,0,0
thread block = 236,0,0
thread block = 237,0,0
thread block = 238,0,0
thread block = 239,0,0
thread block = 240,0,0
thread block = 241,0,0
thread block = 242,0,0
thread block = 243,0,0
thread block = 244,0,0
thread block = 245,0,0
thread block = 246,0,0
thread block = 247,0,0
thread block = 248,0,0
thread block = 249,0,0
thread block = 250,0,0
thread block = 251,0,0
thread block = 252,0,0
thread block = 253,0,0
thread block = 254,0,0
thread block = 255,0,0
thread block = 256,0,0
thread block = 257,0,0
thread block = 258,0,0
thread block = 259,0,0
thread block = 260,0,0
thread block = 261,0,0
thread block = 262,0,0
thread block = 263,0,0
thread block = 264,0,0
thread block = 265,0,0
thread block = 266,0,0
thread block = 267,0,0
thread block = 268,0,0
thread block = 269,0,0
thread block = 270,0,0
thread block = 271,0,0
thread block = 272,0,0
thread block = 273,0,0
thread block = 274,0,0
thread block = 275,0,0
thread block = 276,0,0
thread block = 277,0,0
thread block = 278,0,0
thread block = 279,0,0
thread block = 280,0,0
thread block = 281,0,0
thread block = 282,0,0
thread block = 283,0,0
thread block = 284,0,0
thread block = 285,0,0
thread block = 286,0,0
thread block = 287,0,0
thread block = 288,0,0
thread block = 289,0,0
thread block = 290,0,0
thread block = 291,0,0
thread block = 292,0,0
thread block = 293,0,0
thread block = 294,0,0
thread block = 295,0,0
thread block = 296,0,0
thread block = 297,0,0
thread block = 298,0,0
thread block = 299,0,0
thread block = 300,0,0
thread block = 301,0,0
thread block = 302,0,0
thread block = 303,0,0
thread block = 304,0,0
thread block = 305,0,0
thread block = 306,0,0
thread block = 307,0,0
thread block = 308,0,0
thread block = 309,0,0
thread block = 310,0,0
thread block = 311,0,0
thread block = 312,0,0
thread block = 313,0,0
thread block = 314,0,0
thread block = 315,0,0
thread block = 316,0,0
thread block = 317,0,0
thread block = 318,0,0
thread block = 319,0,0
thread block = 320,0,0
thread block = 321,0,0
thread block = 322,0,0
thread block = 323,0,0
thread block = 324,0,0
thread block = 325,0,0
thread block = 326,0,0
thread block = 327,0,0
thread block = 328,0,0
thread block = 329,0,0
thread block = 330,0,0
thread block = 331,0,0
thread block = 332,0,0
thread block = 333,0,0
thread block = 334,0,0
thread block = 335,0,0
thread block = 336,0,0
thread block = 337,0,0
thread block = 338,0,0
thread block = 339,0,0
thread block = 340,0,0
thread block = 341,0,0
thread block = 342,0,0
thread block = 343,0,0
thread block = 344,0,0
thread block = 345,0,0
thread block = 346,0,0
thread block = 347,0,0
thread block = 348,0,0
thread block = 349,0,0
thread block = 350,0,0
thread block = 351,0,0
thread block = 352,0,0
thread block = 353,0,0
thread block = 354,0,0
thread block = 355,0,0
thread block = 356,0,0
thread block = 357,0,0
thread block = 358,0,0
thread block = 359,0,0
thread block = 360,0,0
thread block = 361,0,0
thread block = 362,0,0
thread block = 363,0,0
thread block = 364,0,0
thread block = 365,0,0
thread block = 366,0,0
thread block = 367,0,0
thread block = 368,0,0
thread block = 369,0,0
thread block = 370,0,0
thread block = 371,0,0
thread block = 372,0,0
thread block = 373,0,0
thread block = 374,0,0
thread block = 375,0,0
thread block = 376,0,0
thread block = 377,0,0
thread block = 378,0,0
thread block = 379,0,0
thread block = 380,0,0
thread block = 381,0,0
thread block = 382,0,0
thread block = 383,0,0
thread block = 384,0,0
thread block = 385,0,0
thread block = 386,0,0
thread block = 387,0,0
thread block = 388,0,0
thread block = 389,0,0
thread block = 390,0,0
thread block = 391,0,0
thread block = 392,0,0
thread block = 393,0,0
thread block = 394,0,0
thread block = 395,0,0
thread block = 396,0,0
thread block = 397,0,0
thread block = 398,0,0
thread block = 399,0,0
thread block = 400,0,0
thread block = 401,0,0
thread block = 402,0,0
thread block = 403,0,0
thread block = 404,0,0
thread block = 405,0,0
thread block = 406,0,0
thread block = 407,0,0
thread block = 408,0,0
thread block = 409,0,0
thread block = 410,0,0
thread block = 411,0,0
thread block = 412,0,0
thread block = 413,0,0
thread block = 414,0,0
thread block = 415,0,0
thread block = 416,0,0
thread block = 417,0,0
thread block = 418,0,0
thread block = 419,0,0
thread block = 420,0,0
thread block = 421,0,0
thread block = 422,0,0
thread block = 423,0,0
thread block = 424,0,0
thread block = 425,0,0
thread block = 426,0,0
thread block = 427,0,0
thread block = 428,0,0
thread block = 429,0,0
thread block = 430,0,0
thread block = 431,0,0
thread block = 432,0,0
thread block = 433,0,0
thread block = 434,0,0
thread block = 435,0,0
thread block = 436,0,0
thread block = 437,0,0
thread block = 438,0,0
thread block = 439,0,0
thread block = 440,0,0
thread block = 441,0,0
thread block = 442,0,0
thread block = 443,0,0
thread block = 444,0,0
thread block = 445,0,0
thread block = 446,0,0
thread block = 447,0,0
thread block = 448,0,0
thread block = 449,0,0
thread block = 450,0,0
thread block = 451,0,0
thread block = 452,0,0
thread block = 453,0,0
thread block = 454,0,0
thread block = 455,0,0
thread block = 456,0,0
thread block = 457,0,0
thread block = 458,0,0
thread block = 459,0,0
thread block = 460,0,0
thread block = 461,0,0
thread block = 462,0,0
thread block = 463,0,0
thread block = 464,0,0
thread block = 465,0,0
thread block = 466,0,0
thread block = 467,0,0
thread block = 468,0,0
thread block = 469,0,0
thread block = 470,0,0
thread block = 471,0,0
thread block = 472,0,0
thread block = 473,0,0
thread block = 474,0,0
thread block = 475,0,0
thread block = 476,0,0
thread block = 477,0,0
thread block = 478,0,0
thread block = 479,0,0
thread block = 480,0,0
thread block = 481,0,0
thread block = 482,0,0
thread block = 483,0,0
thread block = 484,0,0
thread block = 485,0,0
thread block = 486,0,0
thread block = 487,0,0
thread block = 488,0,0
thread block = 489,0,0
thread block = 490,0,0
thread block = 491,0,0
thread block = 492,0,0
thread block = 493,0,0
thread block = 494,0,0
thread block = 495,0,0
thread block = 496,0,0
thread block = 497,0,0
thread block = 498,0,0
thread block = 499,0,0
thread block = 500,0,0
thread block = 501,0,0
thread block = 502,0,0
thread block = 503,0,0
thread block = 504,0,0
thread block = 505,0,0
thread block = 506,0,0
thread block = 507,0,0
thread block = 508,0,0
thread block = 509,0,0
thread block = 510,0,0
thread block = 511,0,0
thread block = 512,0,0
thread block = 513,0,0
thread block = 514,0,0
thread block = 515,0,0
thread block = 516,0,0
thread block = 517,0,0
thread block = 518,0,0
thread block = 519,0,0
thread block = 520,0,0
thread block = 521,0,0
thread block = 522,0,0
thread block = 523,0,0
thread block = 524,0,0
thread block = 525,0,0
thread block = 526,0,0
thread block = 527,0,0
thread block = 528,0,0
thread block = 529,0,0
thread block = 530,0,0
thread block = 531,0,0
thread block = 532,0,0
thread block = 533,0,0
thread block = 534,0,0
thread block = 535,0,0
thread block = 536,0,0
thread block = 537,0,0
thread block = 538,0,0
thread block = 539,0,0
thread block = 540,0,0
thread block = 541,0,0
thread block = 542,0,0
thread block = 543,0,0
thread block = 544,0,0
thread block = 545,0,0
thread block = 546,0,0
thread block = 547,0,0
thread block = 548,0,0
thread block = 549,0,0
thread block = 550,0,0
thread block = 551,0,0
thread block = 552,0,0
thread block = 553,0,0
thread block = 554,0,0
thread block = 555,0,0
thread block = 556,0,0
thread block = 557,0,0
thread block = 558,0,0
thread block = 559,0,0
thread block = 560,0,0
thread block = 561,0,0
thread block = 562,0,0
thread block = 563,0,0
thread block = 564,0,0
thread block = 565,0,0
thread block = 566,0,0
thread block = 567,0,0
thread block = 568,0,0
thread block = 569,0,0
thread block = 570,0,0
thread block = 571,0,0
thread block = 572,0,0
thread block = 573,0,0
thread block = 574,0,0
thread block = 575,0,0
thread block = 576,0,0
thread block = 577,0,0
thread block = 578,0,0
thread block = 579,0,0
thread block = 580,0,0
thread block = 581,0,0
thread block = 582,0,0
thread block = 583,0,0
thread block = 584,0,0
thread block = 585,0,0
thread block = 586,0,0
thread block = 587,0,0
thread block = 588,0,0
thread block = 589,0,0
thread block = 590,0,0
thread block = 591,0,0
thread block = 592,0,0
thread block = 593,0,0
thread block = 594,0,0
thread block = 595,0,0
thread block = 596,0,0
thread block = 597,0,0
thread block = 598,0,0
thread block = 599,0,0
thread block = 600,0,0
thread block = 601,0,0
thread block = 602,0,0
thread block = 603,0,0
thread block = 604,0,0
thread block = 605,0,0
thread block = 606,0,0
thread block = 607,0,0
thread block = 608,0,0
thread block = 609,0,0
thread block = 610,0,0
thread block = 611,0,0
thread block = 612,0,0
thread block = 613,0,0
thread block = 614,0,0
thread block = 615,0,0
thread block = 616,0,0
thread block = 617,0,0
thread block = 618,0,0
thread block = 619,0,0
thread block = 620,0,0
thread block = 621,0,0
thread block = 622,0,0
thread block = 623,0,0
thread block = 624,0,0
thread block = 625,0,0
thread block = 626,0,0
thread block = 627,0,0
thread block = 628,0,0
thread block = 629,0,0
thread block = 630,0,0
thread block = 631,0,0
thread block = 632,0,0
thread block = 633,0,0
thread block = 634,0,0
thread block = 635,0,0
thread block = 636,0,0
thread block = 637,0,0
thread block = 638,0,0
thread block = 639,0,0
thread block = 640,0,0
thread block = 641,0,0
thread block = 642,0,0
thread block = 643,0,0
thread block = 644,0,0
thread block = 645,0,0
thread block = 646,0,0
thread block = 647,0,0
thread block = 648,0,0
thread block = 649,0,0
thread block = 650,0,0
thread block = 651,0,0
thread block = 652,0,0
thread block = 653,0,0
thread block = 654,0,0
thread block = 655,0,0
thread block = 656,0,0
thread block = 657,0,0
thread block = 658,0,0
thread block = 659,0,0
thread block = 660,0,0
thread block = 661,0,0
thread block = 662,0,0
thread block = 663,0,0
thread block = 664,0,0
thread block = 665,0,0
thread block = 666,0,0
thread block = 667,0,0
thread block = 668,0,0
thread block = 669,0,0
thread block = 670,0,0
thread block = 671,0,0
thread block = 672,0,0
thread block = 673,0,0
thread block = 674,0,0
thread block = 675,0,0
thread block = 676,0,0
thread block = 677,0,0
thread block = 678,0,0
thread block = 679,0,0
thread block = 680,0,0
thread block = 681,0,0
thread block = 682,0,0
thread block = 683,0,0
thread block = 684,0,0
thread block = 685,0,0
thread block = 686,0,0
thread block = 687,0,0
thread block = 688,0,0
thread block = 689,0,0
thread block = 690,0,0
thread block = 691,0,0
thread block = 692,0,0
thread block = 693,0,0
thread block = 694,0,0
thread block = 695,0,0
thread block = 696,0,0
thread block = 697,0,0
thread block = 698,0,0
thread block = 699,0,0
thread block = 700,0,0
thread block = 701,0,0
thread block = 702,0,0
thread block = 703,0,0
thread block = 704,0,0
thread block = 705,0,0
thread block = 706,0,0
thread block = 707,0,0
thread block = 708,0,0
thread block = 709,0,0
thread block = 710,0,0
thread block = 711,0,0
thread block = 712,0,0
thread block = 713,0,0
thread block = 714,0,0
thread block = 715,0,0
thread block = 716,0,0
thread block = 717,0,0
thread block = 718,0,0
thread block = 719,0,0
thread block = 720,0,0
thread block = 721,0,0
thread block = 722,0,0
thread block = 723,0,0
thread block = 724,0,0
thread block = 725,0,0
thread block = 726,0,0
thread block = 727,0,0
thread block = 728,0,0
thread block = 729,0,0
thread block = 730,0,0
thread block = 731,0,0
thread block = 732,0,0
thread block = 733,0,0
thread block = 734,0,0
thread block = 735,0,0
thread block = 736,0,0
thread block = 737,0,0
thread block = 738,0,0
thread block = 739,0,0
thread block = 740,0,0
thread block = 741,0,0
thread block = 742,0,0
thread block = 743,0,0
thread block = 744,0,0
thread block = 745,0,0
thread block = 746,0,0
thread block = 747,0,0
thread block = 748,0,0
thread block = 749,0,0
thread block = 750,0,0
thread block = 751,0,0
thread block = 752,0,0
thread block = 753,0,0
thread block = 754,0,0
thread block = 755,0,0
thread block = 756,0,0
thread block = 757,0,0
thread block = 758,0,0
thread block = 759,0,0
thread block = 760,0,0
thread block = 761,0,0
thread block = 762,0,0
thread block = 763,0,0
thread block = 764,0,0
thread block = 765,0,0
thread block = 766,0,0
thread block = 767,0,0
thread block = 768,0,0
thread block = 769,0,0
thread block = 770,0,0
thread block = 771,0,0
thread block = 772,0,0
thread block = 773,0,0
thread block = 774,0,0
thread block = 775,0,0
thread block = 776,0,0
thread block = 777,0,0
thread block = 778,0,0
thread block = 779,0,0
thread block = 780,0,0
thread block = 781,0,0
thread block = 782,0,0
thread block = 783,0,0
thread block = 784,0,0
thread block = 785,0,0
thread block = 786,0,0
thread block = 787,0,0
thread block = 788,0,0
thread block = 789,0,0
thread block = 790,0,0
thread block = 791,0,0
thread block = 792,0,0
thread block = 793,0,0
thread block = 794,0,0
thread block = 795,0,0
thread block = 796,0,0
thread block = 797,0,0
thread block = 798,0,0
thread block = 799,0,0
thread block = 800,0,0
thread block = 801,0,0
thread block = 802,0,0
thread block = 803,0,0
thread block = 804,0,0
thread block = 805,0,0
thread block = 806,0,0
thread block = 807,0,0
thread block = 808,0,0
thread block = 809,0,0
thread block = 810,0,0
thread block = 811,0,0
thread block = 812,0,0
thread block = 813,0,0
thread block = 814,0,0
thread block = 815,0,0
thread block = 816,0,0
thread block = 817,0,0
thread block = 818,0,0
thread block = 819,0,0
thread block = 820,0,0
thread block = 821,0,0
thread block = 822,0,0
thread block = 823,0,0
thread block = 824,0,0
thread block = 825,0,0
thread block = 826,0,0
thread block = 827,0,0
thread block = 828,0,0
thread block = 829,0,0
thread block = 830,0,0
thread block = 831,0,0
thread block = 832,0,0
thread block = 833,0,0
thread block = 834,0,0
thread block = 835,0,0
thread block = 836,0,0
thread block = 837,0,0
thread block = 838,0,0
thread block = 839,0,0
thread block = 840,0,0
thread block = 841,0,0
thread block = 842,0,0
thread block = 843,0,0
thread block = 844,0,0
thread block = 845,0,0
thread block = 846,0,0
thread block = 847,0,0
thread block = 848,0,0
thread block = 849,0,0
thread block = 850,0,0
thread block = 851,0,0
thread block = 852,0,0
thread block = 853,0,0
thread block = 854,0,0
thread block = 855,0,0
thread block = 856,0,0
thread block = 857,0,0
thread block = 858,0,0
thread block = 859,0,0
thread block = 860,0,0
thread block = 861,0,0
thread block = 862,0,0
thread block = 863,0,0
thread block = 864,0,0
thread block = 865,0,0
thread block = 866,0,0
thread block = 867,0,0
thread block = 868,0,0
thread block = 869,0,0
thread block = 870,0,0
thread block = 871,0,0
thread block = 872,0,0
thread block = 873,0,0
thread block = 874,0,0
thread block = 875,0,0
thread block = 876,0,0
thread block = 877,0,0
thread block = 878,0,0
thread block = 879,0,0
thread block = 880,0,0
thread block = 881,0,0
thread block = 882,0,0
thread block = 883,0,0
thread block = 884,0,0
thread block = 885,0,0
thread block = 886,0,0
thread block = 887,0,0
thread block = 888,0,0
thread block = 889,0,0
thread block = 890,0,0
thread block = 891,0,0
thread block = 892,0,0
thread block = 893,0,0
thread block = 894,0,0
thread block = 895,0,0
thread block = 896,0,0
thread block = 897,0,0
thread block = 898,0,0
thread block = 899,0,0
thread block = 900,0,0
thread block = 901,0,0
thread block = 902,0,0
thread block = 903,0,0
thread block = 904,0,0
thread block = 905,0,0
thread block = 906,0,0
thread block = 907,0,0
thread block = 908,0,0
thread block = 909,0,0
thread block = 910,0,0
thread block = 911,0,0
thread block = 912,0,0
thread block = 913,0,0
thread block = 914,0,0
thread block = 915,0,0
thread block = 916,0,0
thread block = 917,0,0
thread block = 918,0,0
thread block = 919,0,0
thread block = 920,0,0
thread block = 921,0,0
thread block = 922,0,0
thread block = 923,0,0
thread block = 924,0,0
thread block = 925,0,0
thread block = 926,0,0
thread block = 927,0,0
thread block = 928,0,0
thread block = 929,0,0
thread block = 930,0,0
thread block = 931,0,0
thread block = 932,0,0
thread block = 933,0,0
thread block = 934,0,0
thread block = 935,0,0
thread block = 936,0,0
thread block = 937,0,0
thread block = 938,0,0
thread block = 939,0,0
thread block = 940,0,0
thread block = 941,0,0
thread block = 942,0,0
thread block = 943,0,0
thread block = 944,0,0
thread block = 945,0,0
thread block = 946,0,0
thread block = 947,0,0
thread block = 948,0,0
thread block = 949,0,0
thread block = 950,0,0
thread block = 951,0,0
thread block = 952,0,0
thread block = 953,0,0
thread block = 954,0,0
thread block = 955,0,0
thread block = 956,0,0
thread block = 957,0,0
thread block = 958,0,0
thread block = 959,0,0
thread block = 960,0,0
thread block = 961,0,0
thread block = 962,0,0
thread block = 963,0,0
thread block = 964,0,0
thread block = 965,0,0
thread block = 966,0,0
thread block = 967,0,0
thread block = 968,0,0
thread block = 969,0,0
thread block = 970,0,0
thread block = 971,0,0
thread block = 972,0,0
thread block = 973,0,0
thread block = 974,0,0
thread block = 975,0,0
thread block = 976,0,0
thread block = 977,0,0
thread block = 978,0,0
thread block = 979,0,0
thread block = 980,0,0
thread block = 981,0,0
thread block = 982,0,0
thread block = 983,0,0
thread block = 984,0,0
thread block = 985,0,0
thread block = 986,0,0
thread block = 987,0,0
thread block = 988,0,0
thread block = 989,0,0
thread block = 990,0,0
thread block = 991,0,0
thread block = 992,0,0
thread block = 993,0,0
thread block = 994,0,0
thread block = 995,0,0
thread block = 996,0,0
thread block = 997,0,0
thread block = 998,0,0
thread block = 999,0,0
thread block = 1000,0,0
thread block = 1001,0,0
thread block = 1002,0,0
thread block = 1003,0,0
