Skipping setup_environment - already set
doing: export -n PTX_SIM_USE_PTX_FILE
doing: export LD_LIBRARY_PATH=/home/htran197/accel-sim-framework/gpu-simulator/../accelwattch_runs/pascal_ptx_sim/gpgpu-sim-builds/gpgpu-sim_git-commit-971dd69e8a6c355c8cc4c8bd997db51376ff520a_modified_1.0:/home/htran197/accel-sim-framework/gpu-simulator/gpgpu-sim/lib/gcc-8.4.0/cuda-11000/debug:/home/htran197/accel-sim-framework/gpu-simulator/gpgpu-sim/lib/gcc-8.4.0/cuda-11000/release::/usr/lib/x86_64-linux-gnu/slurm-wlm/:/usr/lib/x86_64-linux-gnu/slurm-wlm/
doing: cd /home/htran197/accel-sim-framework/gpu-simulator/../accelwattch_runs/pascal_ptx_sim/backprop-rodinia-3.1/65536/TITANX-Accelwattch_PTX_SIM
doing: export OPENCL_CURRENT_TEST_PATH=/home/htran197/accel-sim-framework/gpu-simulator/../accelwattch_runs/pascal_ptx_sim/backprop-rodinia-3.1/65536/TITANX-Accelwattch_PTX_SIM
doing: export OPENCL_REMOTE_GPU_HOST=REPLACE_REMOTE_HOST
doing 
doing: export PATH=/home/htran197/accel-sim-framework/gpu-simulator/gpgpu-sim/bin:/usr/local/cuda-11.0//bin:/home/htran197/anaconda3/envs/python2/bin:/home/htran197/anaconda3/bin:/usr/local/cuda-11.0/bin:/usr/local/cuda/bin:/home/htran197/.vscode-server/bin/1ad8d514439d5077d2b0b7ee64d2ce82a9308e5a/bin/remote-cli:/home/htran197/anaconda3/condabin:/home/htran197/accel-sim-framework/gpu-simulator/gpgpu-sim/bin:/usr/local/cuda-11.0/bin:/home/htran197/anaconda3/bin:/usr/local/cuda-11.0/bin:/usr/local/cuda/bin:/usr/local/sbin:/usr/local/bin:/usr/sbin:/usr/bin:/sbin:/bin:/usr/games:/usr/local/games:/snap/bin:/usr/local/bin
doing export CUDA_LAUNCH_BLOCKING=1
doing:  /home/htran197/accel-sim-framework/gpu-simulator/../util/accelwattch/accelwattch_benchmarks/validation/backprop-rodinia-3.1 65536


        *** GPGPU-Sim Simulator Version 4.2.0  [build gpgpu-sim_git-commit-971dd69e8a6c355c8cc4c8bd997db51376ff520a_modified_1.0] ***


GPGPU-Sim PTX: simulation mode 0 (can change with PTX_SIM_MODE_FUNC environment variable:
               1=functional simulation only, 0=detailed performance simulator)
GPGPU-Sim: Configuration options:

-save_embedded_ptx                      0 # saves ptx files embedded in binary as <n>.ptx
-keep                                   0 # keep intermediate files created by GPGPU-Sim when interfacing with external programs
-gpgpu_ptx_save_converted_ptxplus                    0 # Saved converted ptxplus to a file
-gpgpu_occupancy_sm_number                   62 # The SM number to pass to ptxas when getting register usage for computing GPU occupancy. This parameter is required in the config.
-ptx_opcode_latency_int      4,13,4,5,145,32 # Opcode latencies for integers <ADD,MAX,MUL,MAD,DIV,SHFL>Default 1,1,19,25,145,32
-ptx_opcode_latency_fp          4,13,4,4,39 # Opcode latencies for single precision floating points <ADD,MAX,MUL,MAD,DIV>Default 1,1,1,1,30
-ptx_opcode_latency_dp         8,19,8,8,330 # Opcode latencies for double precision floating points <ADD,MAX,MUL,MAD,DIV>Default 8,8,8,8,335
-ptx_opcode_latency_sfu                   20 # Opcode latencies for SFU instructionsDefault 8
-ptx_opcode_latency_tesnor                   64 # Opcode latencies for Tensor instructionsDefault 64
-ptx_opcode_initiation_int          1,1,1,1,4,4 # Opcode initiation intervals for integers <ADD,MAX,MUL,MAD,DIV,SHFL>Default 1,1,4,4,32,4
-ptx_opcode_initiation_fp            1,2,1,1,4 # Opcode initiation intervals for single precision floating points <ADD,MAX,MUL,MAD,DIV>Default 1,1,1,1,5
-ptx_opcode_initiation_dp          8,8,8,8,130 # Opcode initiation intervals for double precision floating points <ADD,MAX,MUL,MAD,DIV>Default 8,8,8,8,130
-ptx_opcode_initiation_sfu                    4 # Opcode initiation intervals for sfu instructionsDefault 8
-ptx_opcode_initiation_tensor                   64 # Opcode initiation intervals for tensor instructionsDefault 64
-cdp_latency         7200,8000,100,12000,1600 # CDP API latency <cudaStreamCreateWithFlags, cudaGetParameterBufferV2_init_perWarp, cudaGetParameterBufferV2_perKernel, cudaLaunchDeviceV2_init_perWarp, cudaLaunchDevicV2_perKernel>Default 7200,8000,100,12000,1600
-network_mode                           1 # Interconnection network mode
-inter_config_file   config_pascal_islip.icnt # Interconnection network config file
-icnt_in_buffer_limit                   64 # in_buffer_limit
-icnt_out_buffer_limit                   64 # out_buffer_limit
-icnt_subnets                           2 # subnets
-icnt_arbiter_algo                      1 # arbiter_algo
-icnt_verbose                           0 # inct_verbose
-icnt_grant_cycles                      1 # grant_cycles
-gpgpu_ptx_use_cuobjdump                    1 # Use cuobjdump to extract ptx and sass from binaries
-gpgpu_experimental_lib_support                    0 # Try to extract code from cuda libraries [Broken because of unknown cudaGetExportTable]
-checkpoint_option                      0 #  checkpointing flag (0 = no checkpoint)
-checkpoint_kernel                      1 #  checkpointing during execution of which kernel (1- 1st kernel)
-checkpoint_CTA                         0 #  checkpointing after # of CTA (< less than total CTA)
-resume_option                          0 #  resume flag (0 = no resume)
-resume_kernel                          0 #  Resume from which kernel (1= 1st kernel)
-resume_CTA                             0 #  resume from which CTA 
-checkpoint_CTA_t                       0 #  resume from which CTA 
-checkpoint_insn_Y                      0 #  resume from which CTA 
-gpgpu_ptx_convert_to_ptxplus                    0 # Convert SASS (native ISA) to ptxplus and run ptxplus
-gpgpu_ptx_force_max_capability                   61 # Force maximum compute capability
-gpgpu_ptx_inst_debug_to_file                    0 # Dump executed instructions' debug information to file
-gpgpu_ptx_inst_debug_file       inst_debug.txt # Executed instructions' debug output file
-gpgpu_ptx_inst_debug_thread_uid                    1 # Thread UID for executed instructions' debug output
-gpgpu_simd_model                       1 # 1 = post-dominator
-gpgpu_shader_core_pipeline              2048:32 # shader core pipeline config, i.e., {<nthread>:<warpsize>}
-gpgpu_tex_cache:l1  N:16:128:24,L:R:m:N:L,T:128:4,128:2 # per-shader L1 texture cache  (READ-ONLY) config  {<nsets>:<bsize>:<assoc>,<rep>:<wr>:<alloc>:<wr_alloc>,<mshr>:<N>:<merge>,<mq>:<rf>}
-gpgpu_const_cache:l1 N:128:64:2,L:R:f:N:L,S:2:64,4 # per-shader L1 constant memory cache  (READ-ONLY) config  {<nsets>:<bsize>:<assoc>,<rep>:<wr>:<alloc>:<wr_alloc>,<mshr>:<N>:<merge>,<mq>} 
-gpgpu_cache:il1     N:8:128:4,L:R:f:N:L,S:2:48,4 # shader L1 instruction cache config  {<nsets>:<bsize>:<assoc>,<rep>:<wr>:<alloc>:<wr_alloc>,<mshr>:<N>:<merge>,<mq>} 
-gpgpu_cache:dl1     S:4:128:96,L:L:s:N:L,A:256:8,16:0,32 # per-shader L1 data cache config  {<nsets>:<bsize>:<assoc>,<rep>:<wr>:<alloc>:<wr_alloc>,<mshr>:<N>:<merge>,<mq> | none}
-gpgpu_l1_banks                         2 # The number of L1 cache banks
-gpgpu_l1_banks_byte_interleaving                   32 # l1 banks byte interleaving granularity
-gpgpu_l1_banks_hashing_function                    0 # l1 banks hashing function
-gpgpu_l1_latency                      82 # L1 Hit Latency
-gpgpu_smem_latency                    24 # smem Latency
-gpgpu_cache:dl1PrefL1 S:4:128:96,L:L:s:N:L,A:256:8,16:0,32 # per-shader L1 data cache config  {<nsets>:<bsize>:<assoc>,<rep>:<wr>:<alloc>:<wr_alloc>,<mshr>:<N>:<merge>,<mq> | none}
-gpgpu_cache:dl1PrefShared S:4:128:96,L:L:s:N:L,A:256:8,16:0,32 # per-shader L1 data cache config  {<nsets>:<bsize>:<assoc>,<rep>:<wr>:<alloc>:<wr_alloc>,<mshr>:<N>:<merge>,<mq> | none}
-gpgpu_gmem_skip_L1D                    1 # global memory access skip L1D cache (implements -Xptxas -dlcm=cg, default=no skip)
-gpgpu_perfect_mem                      0 # enable perfect memory mode (no cache miss)
-n_regfile_gating_group                    4 # group of lanes that should be read/written together)
-gpgpu_clock_gated_reg_file                    0 # enable clock gated reg file for power calculations
-gpgpu_clock_gated_lanes                    1 # enable clock gated lanes for power calculations
-gpgpu_shader_registers                65536 # Number of registers per shader core. Limits number of concurrent CTAs. (default 8192)
-gpgpu_registers_per_block                 8192 # Maximum number of registers per CTA. (default 8192)
-gpgpu_ignore_resources_limitation                    1 # gpgpu_ignore_resources_limitation (default 0)
-gpgpu_shader_cta                      32 # Maximum number of concurrent CTAs in shader (default 8)
-gpgpu_num_cta_barriers                   16 # Maximum number of named barriers per CTA (default 16)
-gpgpu_n_clusters                       6 # number of processing clusters
-gpgpu_n_cores_per_cluster                    1 # number of simd cores per cluster
-gpgpu_n_cluster_ejection_buffer_size                   32 # number of packets in ejection buffer
-gpgpu_n_ldst_response_buffer_size                    2 # number of response packets in ld/st unit ejection buffer
-gpgpu_shmem_per_block                49152 # Size of shared memory per thread block or CTA (default 48kB)
-gpgpu_shmem_size                   98304 # Size of shared memory per shader core (default 16kB)
-gpgpu_adaptive_cache_config                    0 # adaptive_cache_config
-gpgpu_shmem_sizeDefault                98304 # Size of shared memory per shader core (default 16kB)
-gpgpu_shmem_size_PrefL1                98304 # Size of shared memory per shader core (default 16kB)
-gpgpu_shmem_size_PrefShared                98304 # Size of shared memory per shader core (default 16kB)
-gpgpu_shmem_num_banks                   32 # Number of banks in the shared memory in each shader core (default 16)
-gpgpu_shmem_limited_broadcast                    0 # Limit shared memory to do one broadcast per cycle (default on)
-gpgpu_shmem_warp_parts                    1 # Number of portions a warp is divided into for shared memory bank conflict check 
-gpgpu_mem_unit_ports                    1 # The number of memory transactions allowed per core cycle
-gpgpu_shmem_warp_parts                    1 # Number of portions a warp is divided into for shared memory bank conflict check 
-gpgpu_warpdistro_shader                   -1 # Specify which shader core to collect the warp size distribution from
-gpgpu_warp_issue_shader                    0 # Specify which shader core to collect the warp issue distribution from
-gpgpu_local_mem_map                    1 # Mapping from local memory space address to simulated GPU physical address space (default = enabled)
-gpgpu_num_reg_banks                   16 # Number of register banks (default = 8)
-gpgpu_reg_bank_use_warp_id                    0 # Use warp ID in mapping registers to banks (default = off)
-gpgpu_sub_core_model                    1 # Sub Core Volta/Pascal model (default = off)
-gpgpu_enable_specialized_operand_collector                    0 # enable_specialized_operand_collector
-gpgpu_operand_collector_num_units_sp                    4 # number of collector units (default = 4)
-gpgpu_operand_collector_num_units_dp                    0 # number of collector units (default = 0)
-gpgpu_operand_collector_num_units_sfu                    4 # number of collector units (default = 4)
-gpgpu_operand_collector_num_units_int                    0 # number of collector units (default = 0)
-gpgpu_operand_collector_num_units_tensor_core                    4 # number of collector units (default = 4)
-gpgpu_operand_collector_num_units_mem                    2 # number of collector units (default = 2)
-gpgpu_operand_collector_num_units_gen                    8 # number of collector units (default = 0)
-gpgpu_operand_collector_num_in_ports_sp                    1 # number of collector unit in ports (default = 1)
-gpgpu_operand_collector_num_in_ports_dp                    0 # number of collector unit in ports (default = 0)
-gpgpu_operand_collector_num_in_ports_sfu                    1 # number of collector unit in ports (default = 1)
-gpgpu_operand_collector_num_in_ports_int                    0 # number of collector unit in ports (default = 0)
-gpgpu_operand_collector_num_in_ports_tensor_core                    1 # number of collector unit in ports (default = 1)
-gpgpu_operand_collector_num_in_ports_mem                    1 # number of collector unit in ports (default = 1)
-gpgpu_operand_collector_num_in_ports_gen                    8 # number of collector unit in ports (default = 0)
-gpgpu_operand_collector_num_out_ports_sp                    1 # number of collector unit in ports (default = 1)
-gpgpu_operand_collector_num_out_ports_dp                    0 # number of collector unit in ports (default = 0)
-gpgpu_operand_collector_num_out_ports_sfu                    1 # number of collector unit in ports (default = 1)
-gpgpu_operand_collector_num_out_ports_int                    0 # number of collector unit in ports (default = 0)
-gpgpu_operand_collector_num_out_ports_tensor_core                    1 # number of collector unit in ports (default = 1)
-gpgpu_operand_collector_num_out_ports_mem                    1 # number of collector unit in ports (default = 1)
-gpgpu_operand_collector_num_out_ports_gen                    8 # number of collector unit in ports (default = 0)
-gpgpu_coalesce_arch                   61 # Coalescing arch (GT200 = 13, Fermi = 20)
-gpgpu_num_sched_per_core                    4 # Number of warp schedulers per core
-gpgpu_max_insn_issue_per_warp                    2 # Max number of instructions that can be issued per warp in one cycle by scheduler (either 1 or 2)
-gpgpu_dual_issue_diff_exec_units                    1 # should dual issue use two different execution unit resources (Default = 1)
-gpgpu_simt_core_sim_order                    1 # Select the simulation order of cores in a cluster (0=Fix, 1=Round-Robin)
-gpgpu_pipeline_widths 4,0,0,4,4,4,0,0,4,4,8 # Pipeline widths ID_OC_SP,ID_OC_DP,ID_OC_INT,ID_OC_SFU,ID_OC_MEM,OC_EX_SP,OC_EX_DP,OC_EX_INT,OC_EX_SFU,OC_EX_MEM,EX_WB,ID_OC_TENSOR_CORE,OC_EX_TENSOR_CORE
-gpgpu_tensor_core_avail                    0 # Tensor Core Available (default=0)
-gpgpu_num_sp_units                     4 # Number of SP units (default=1)
-gpgpu_num_dp_units                     0 # Number of DP units (default=0)
-gpgpu_num_int_units                    0 # Number of INT units (default=0)
-gpgpu_num_sfu_units                    4 # Number of SF units (default=1)
-gpgpu_num_tensor_core_units                    0 # Number of tensor_core units (default=1)
-gpgpu_num_mem_units                    1 # Number if ldst units (default=1) WARNING: not hooked up to anything
-gpgpu_scheduler                      gto # Scheduler configuration: < lrr | gto | two_level_active > If two_level_active:<num_active_warps>:<inner_prioritization>:<outer_prioritization>For complete list of prioritization values see shader.h enum scheduler_prioritization_typeDefault: gto
-gpgpu_concurrent_kernel_sm                    0 # Support concurrent kernels on a SM (default = disabled)
-gpgpu_perfect_inst_const_cache                    1 # perfect inst and const cache mode, so all inst and const hits in the cache(default = disabled)
-gpgpu_inst_fetch_throughput                    8 # the number of fetched intruction per warp each cycle
-gpgpu_reg_file_port_throughput                    2 # the number ports of the register file
-specialized_unit_1         0,4,4,4,4,BRA # specialized unit config {<enabled>,<num_units>:<latency>:<initiation>,<ID_OC_SPEC>:<OC_EX_SPEC>,<NAME>}
-specialized_unit_2         0,4,4,4,4,BRA # specialized unit config {<enabled>,<num_units>:<latency>:<initiation>,<ID_OC_SPEC>:<OC_EX_SPEC>,<NAME>}
-specialized_unit_3         0,4,4,4,4,BRA # specialized unit config {<enabled>,<num_units>:<latency>:<initiation>,<ID_OC_SPEC>:<OC_EX_SPEC>,<NAME>}
-specialized_unit_4         0,4,4,4,4,BRA # specialized unit config {<enabled>,<num_units>:<latency>:<initiation>,<ID_OC_SPEC>:<OC_EX_SPEC>,<NAME>}
-specialized_unit_5         0,4,4,4,4,BRA # specialized unit config {<enabled>,<num_units>:<latency>:<initiation>,<ID_OC_SPEC>:<OC_EX_SPEC>,<NAME>}
-specialized_unit_6         0,4,4,4,4,BRA # specialized unit config {<enabled>,<num_units>:<latency>:<initiation>,<ID_OC_SPEC>:<OC_EX_SPEC>,<NAME>}
-specialized_unit_7         0,4,4,4,4,BRA # specialized unit config {<enabled>,<num_units>:<latency>:<initiation>,<ID_OC_SPEC>:<OC_EX_SPEC>,<NAME>}
-specialized_unit_8         0,4,4,4,4,BRA # specialized unit config {<enabled>,<num_units>:<latency>:<initiation>,<ID_OC_SPEC>:<OC_EX_SPEC>,<NAME>}
-gpgpu_perf_sim_memcpy                    1 # Fill the L2 cache on memcpy
-gpgpu_simple_dram_model                    0 # simple_dram_model with fixed latency and BW
-gpgpu_dram_scheduler                    1 # 0 = fifo, 1 = FR-FCFS (defaul)
-gpgpu_dram_partition_queues          32:32:32:32 # i2$:$2d:d2$:$2i
-l2_ideal                               0 # Use a ideal L2 cache that always hit
-gpgpu_cache:dl2     S:64:128:16,L:B:m:L:P,A:256:64,16:0,32 # unified banked L2 data cache config  {<nsets>:<bsize>:<assoc>,<rep>:<wr>:<alloc>:<wr_alloc>,<mshr>:<N>:<merge>,<mq>}
-gpgpu_cache:dl2_texture_only                    0 # L2 cache used for texture only
-gpgpu_n_mem                           12 # number of memory modules (e.g. memory controllers) in gpu
-gpgpu_n_sub_partition_per_mchannel                    2 # number of memory subpartition in each memory module
-gpgpu_n_mem_per_ctrlr                    1 # number of memory chips per memory controller
-gpgpu_memlatency_stat                   14 # track and display latency statistics 0x2 enables MC, 0x4 enables queue logs
-gpgpu_frfcfs_dram_sched_queue_size                   64 # 0 = unlimited (default); # entries per chip
-gpgpu_dram_return_queue_size                   64 # 0 = unlimited (default); # entries per chip
-gpgpu_dram_buswidth                    4 # default = 4 bytes (8 bytes per cycle at DDR)
-gpgpu_dram_burst_length                    8 # Burst length of each DRAM request (default = 4 data bus cycle)
-dram_data_command_freq_ratio                    4 # Frequency ratio between DRAM data bus and command bus (default = 2 times, i.e. DDR)
-gpgpu_dram_timing_opt nbk=16:CCD=2:RRD=8:RCD=16:RAS=37:RP=16:RC=52: CL=16:WL=6:CDLR=7:WR=16:nbkgrp=4:CCDL=4:RTPL=3 # DRAM timing parameters = {nbk:tCCD:tRRD:tRCD:tRAS:tRP:tRC:CL:WL:tCDLR:tWR:nbkgrp:tCCDL:tRTPL}
-gpgpu_l2_rop_latency                  120 # ROP queue latency (default 85)
-dram_latency                         100 # DRAM latency (default 30)
-dram_dual_bus_interface                    0 # dual_bus_interface (default = 0) 
-dram_bnk_indexing_policy                    0 # dram_bnk_indexing_policy (0 = normal indexing, 1 = Xoring with the higher bits) (Default = 0)
-dram_bnkgrp_indexing_policy                    1 # dram_bnkgrp_indexing_policy (0 = take higher bits, 1 = take lower bits) (Default = 0)
-dram_seperate_write_queue_enable                    0 # Seperate_Write_Queue_Enable
-dram_write_queue_size             32:28:16 # Write_Queue_Size
-dram_elimnate_rw_turnaround                    0 # elimnate_rw_turnaround i.e set tWTR and tRTW = 0
-icnt_flit_size                        40 # icnt_flit_size
-gpgpu_mem_addr_mapping dramid@8;00000000.00000000.00000000.00000000.0000RRRR.RRRRRRRR.RBBBCCCC.BCCSSSSS # mapping memory address to dram model {dramid@<start bit>;<memory address map>}
-gpgpu_mem_addr_test                    0 # run sweep test to check address mapping for aliased address
-gpgpu_mem_address_mask                    1 # 0 = old addressing mask, 1 = new addressing mask, 2 = new add. mask + flipped bank sel and chip sel bits
-gpgpu_memory_partition_indexing                    4 # 0 = no indexing, 1 = bitwise xoring, 2 = IPoly, 3 = custom indexing
-accelwattch_xml_file accelwattch_ptx_sim.xml # AccelWattch XML file
-power_simulation_enabled                    1 # Turn on power simulator (1=On, 0=Off)
-power_per_cycle_dump                    0 # Dump detailed power output each cycle
-hw_perf_file_name            hw_perf.csv # Hardware Performance Statistics file
-hw_perf_bench_name                       # Kernel Name in Hardware Performance Statistics file
-power_simulation_mode                    0 # Switch performance counter input for power simulation (0=Sim, 1=HW, 2=HW-Sim Hybrid)
-dvfs_enabled                           0 # Turn on DVFS for power model
-aggregate_power_stats                    0 # Accumulate power across all kernels
-accelwattch_hybrid_perfsim_L1_RH                    0 # Get L1 Read Hits for Accelwattch-Hybrid from Accel-Sim
-accelwattch_hybrid_perfsim_L1_RM                    0 # Get L1 Read Misses for Accelwattch-Hybrid from Accel-Sim
-accelwattch_hybrid_perfsim_L1_WH                    0 # Get L1 Write Hits for Accelwattch-Hybrid from Accel-Sim
-accelwattch_hybrid_perfsim_L1_WM                    0 # Get L1 Write Misses for Accelwattch-Hybrid from Accel-Sim
-accelwattch_hybrid_perfsim_L2_RH                    0 # Get L2 Read Hits for Accelwattch-Hybrid from Accel-Sim
-accelwattch_hybrid_perfsim_L2_RM                    0 # Get L2 Read Misses for Accelwattch-Hybrid from Accel-Sim
-accelwattch_hybrid_perfsim_L2_WH                    0 # Get L2 Write Hits for Accelwattch-Hybrid from Accel-Sim
-accelwattch_hybrid_perfsim_L2_WM                    0 # Get L2 Write Misses for Accelwattch-Hybrid from Accel-Sim
-accelwattch_hybrid_perfsim_CC_ACC                    0 # Get Constant Cache Acesses for Accelwattch-Hybrid from Accel-Sim
-accelwattch_hybrid_perfsim_SHARED_ACC                    0 # Get Shared Memory Acesses for Accelwattch-Hybrid from Accel-Sim
-accelwattch_hybrid_perfsim_DRAM_RD                    0 # Get DRAM Reads for Accelwattch-Hybrid from Accel-Sim
-accelwattch_hybrid_perfsim_DRAM_WR                    0 # Get DRAM Writes for Accelwattch-Hybrid from Accel-Sim
-accelwattch_hybrid_perfsim_NOC                    0 # Get Interconnect Acesses for Accelwattch-Hybrid from Accel-Sim
-accelwattch_hybrid_perfsim_PIPE_DUTY                    0 # Get Pipeline Duty Cycle Acesses for Accelwattch-Hybrid from Accel-Sim
-accelwattch_hybrid_perfsim_NUM_SM_IDLE                    0 # Get Number of Idle SMs for Accelwattch-Hybrid from Accel-Sim
-accelwattch_hybrid_perfsim_CYCLES                    0 # Get Executed Cycles for Accelwattch-Hybrid from Accel-Sim
-accelwattch_hybrid_perfsim_VOLTAGE                    0 # Get Chip Voltage for Accelwattch-Hybrid from Accel-Sim
-power_trace_enabled                    0 # produce a file for the power trace (1=On, 0=Off)
-power_trace_zlevel                     6 # Compression level of the power trace output log (0=no comp, 9=highest)
-steady_power_levels_enabled                    0 # produce a file for the steady power levels (1=On, 0=Off)
-steady_state_definition                  8:4 # allowed deviation:number of samples
-gpgpu_max_cycle                        0 # terminates gpu simulation early (0 = no limit)
-gpgpu_max_insn                         0 # terminates gpu simulation early (0 = no limit)
-gpgpu_max_cta                          0 # terminates gpu simulation early (0 = no limit)
-gpgpu_max_completed_cta                    0 # terminates gpu simulation early (0 = no limit)
-gpgpu_runtime_stat                   500 # display runtime statistics such as dram utilization {<freq>:<flag>}
-liveness_message_freq                    1 # Minimum number of seconds between simulation liveness messages (0 = always print)
-gpgpu_compute_capability_major                    6 # Major compute capability version number
-gpgpu_compute_capability_minor                    1 # Minor compute capability version number
-gpgpu_flush_l1_cache                    1 # Flush L1 cache at the end of each kernel call
-gpgpu_flush_l2_cache                    0 # Flush L2 cache at the end of each kernel call
-gpgpu_deadlock_detect                    1 # Stop the simulation at deadlock (1=on (default), 0=off)
-gpgpu_ptx_instruction_classification                    0 # if enabled will classify ptx instruction types per kernel (Max 255 kernels now)
-gpgpu_ptx_sim_mode                     0 # Select between Performance (default) or Functional simulation (1)
-gpgpu_clock_domains 1417.0:1417.0:1417.0:2500.0 # Clock Domain Frequencies in MhZ {<Core Clock>:<ICNT Clock>:<L2 Clock>:<DRAM Clock>}
-gpgpu_max_concurrent_kernel                    8 # maximum kernels that can run concurrently on GPU
-gpgpu_cflog_interval                    0 # Interval between each snapshot in control flow logger
-visualizer_enabled                     0 # Turn on visualizer output (1=On, 0=Off)
-visualizer_outputfile                 NULL # Specifies the output log file for visualizer
-visualizer_zlevel                      6 # Compression level of the visualizer output log (0=no comp, 9=highest)
-gpgpu_stack_size_limit                 1024 # GPU thread stack size
-gpgpu_heap_size_limit              8388608 # GPU malloc heap size 
-gpgpu_runtime_sync_depth_limit                    2 # GPU device runtime synchronize depth
-gpgpu_runtime_pending_launch_count_limit                 2048 # GPU device runtime pending launch count
-trace_enabled                          0 # Turn on traces
-trace_components                    none # comma seperated list of traces to enable. Complete list found in trace_streams.tup. Default none
-trace_sampling_core                    0 # The core which is printed using CORE_DPRINTF. Default 0
-trace_sampling_memory_partition                   -1 # The memory partition which is printed using MEMPART_DPRINTF. Default -1 (i.e. all)
-enable_ptx_file_line_stats                    1 # Turn on PTX source line statistic profiling. (1 = On)
-ptx_line_stats_filename gpgpu_inst_stats.txt # Output file for PTX source line statistics.
-gpgpu_kernel_launch_latency                 5000 # Kernel launch latency in cycles. Default: 0
-gpgpu_cdp_enabled                      0 # Turn on CDP
-gpgpu_TB_launch_latency                    0 # thread block launch latency in cycles. Default: 0
DRAM Timing Options:
nbk                                    16 # number of banks
CCD                                     2 # column to column delay
RRD                                     8 # minimal delay between activation of rows in different banks
RCD                                    16 # row to column delay
RAS                                    37 # time needed to activate row
RP                                     16 # time needed to precharge (deactivate) row
RC                                     52 # row cycle time
CDLR                                    7 # switching from write to read (changes tWTR)
WR                                     16 # last data-in to row precharge
CL                                     16 # CAS latency
WL                                      6 # Write latency
nbkgrp                                  4 # number of bank groups
CCDL                                    4 # column to column delay between accesses to different bank groups
RTPL                                    3 # read to precharge delay between accesses to different bank groups
Total number of memory sub partition = 24
addr_dec_mask[CHIP]  = 0000000000000000 	high:64 low:0
addr_dec_mask[BK]    = 0000000000007080 	high:15 low:7
addr_dec_mask[ROW]   = 000000000fff8000 	high:28 low:15
addr_dec_mask[COL]   = 0000000000000f7f 	high:12 low:0
addr_dec_mask[BURST] = 000000000000001f 	high:5 low:0
sub_partition_id_mask = 0000000000000080
GPGPU-Sim uArch: clock freqs: 1417000000.000000:1417000000.000000:1417000000.000000:2500000000.000000
GPGPU-Sim uArch: clock periods: 0.00000000070571630205:0.00000000070571630205:0.00000000070571630205:0.00000000040000000000
*** Initializing Memory Statistics ***
GPGPU-Sim uArch: interconnect node map (shaderID+MemID to icntID)
GPGPU-Sim uArch: Memory nodes ID start from index: 6
GPGPU-Sim uArch:    0   1   2   3   4   5   6
GPGPU-Sim uArch:    7   8   9  10  11  12  13
GPGPU-Sim uArch:   14  15  16  17  18  19  20
GPGPU-Sim uArch:   21  22  23  24  25  26  27
GPGPU-Sim uArch:   28  29  30  31  32  33  34
GPGPU-Sim uArch:   35  36  37  38  39  40  41
GPGPU-Sim uArch:   42  43  44  45  46  47  48
GPGPU-Sim uArch:   49  50  51
GPGPU-Sim uArch: interconnect node reverse map (icntID to shaderID+MemID)
GPGPU-Sim uArch: Memory nodes start from ID: 6
GPGPU-Sim uArch:    0   1   2   3   4   5   6
GPGPU-Sim uArch:    7   8   9  10  11  12  13
GPGPU-Sim uArch:   14  15  16  17  18  19  20
GPGPU-Sim uArch:   21  22  23  24  25  26  27
GPGPU-Sim uArch:   28  29  30  31  32  33  34
GPGPU-Sim uArch:   35  36  37  38  39  40  41
GPGPU-Sim uArch:   42  43  44  45  46  47  48
GPGPU-Sim uArch:   49  50  51
2f6fece686db8e035cac53fd69803868  /home/htran197/accel-sim-framework/util/accelwattch/accelwattch_benchmarks/validation/backprop-rodinia-3.1
Extracting PTX file and ptxas options    1: backprop-rodinia-3.1.sm_60.ptx -arch=sm_60
Extracting PTX file and ptxas options    2: backprop-rodinia-3.2.sm_61.ptx -arch=sm_61
Extracting PTX file and ptxas options    3: backprop-rodinia-3.3.sm_70.ptx -arch=sm_70
Extracting PTX file and ptxas options    4: backprop-rodinia-3.4.sm_75.ptx -arch=sm_75
GPGPU-Sim uArch: performance model initialization complete.
self exe links to: /home/htran197/accel-sim-framework/util/accelwattch/accelwattch_benchmarks/validation/backprop-rodinia-3.1
self exe links to: /home/htran197/accel-sim-framework/util/accelwattch/accelwattch_benchmarks/validation/backprop-rodinia-3.1
11.0
GPGPU-Sim PTX: __cudaRegisterFatBinary, fat_cubin_handle = 1, filename=default
self exe links to: /home/htran197/accel-sim-framework/util/accelwattch/accelwattch_benchmarks/validation/backprop-rodinia-3.1
Running md5sum using "md5sum /home/htran197/accel-sim-framework/util/accelwattch/accelwattch_benchmarks/validation/backprop-rodinia-3.1 "
self exe links to: /home/htran197/accel-sim-framework/util/accelwattch/accelwattch_benchmarks/validation/backprop-rodinia-3.1
Extracting specific PTX file named backprop-rodinia-3.1.sm_60.ptx 
Extracting specific PTX file named backprop-rodinia-3.2.sm_61.ptx 
Extracting specific PTX file named backprop-rodinia-3.3.sm_70.ptx 
Extracting specific PTX file named backprop-rodinia-3.4.sm_75.ptx 
GPGPU-Sim PTX: __cudaRegisterFunction _Z24bpnn_adjust_weights_cudaPfiS_iS_S_ : hostFun 0x0x556f6aa3b3e0, fat_cubin_handle = 1
GPGPU-Sim PTX: Parsing backprop-rodinia-3.1.sm_60.ptx
GPGPU-Sim PTX: allocating shared region for "_ZZ22bpnn_layerforward_CUDAPfS_S_S_iiE10input_node" from 0x0 to 0x40 (shared memory space)
GPGPU-Sim PTX: allocating shared region for "_ZZ22bpnn_layerforward_CUDAPfS_S_S_iiE13weight_matrix" from 0x80 to 0x480 (shared memory space)
GPGPU-Sim PTX: instruction assembly for function '_Z22bpnn_layerforward_CUDAPfS_S_S_ii'...   done.
GPGPU-Sim PTX: instruction assembly for function '_Z24bpnn_adjust_weights_cudaPfiS_iS_S_'...   done.
GPGPU-Sim PTX: finished parsing EMBEDDED .ptx file backprop-rodinia-3.1.sm_60.ptx
GPGPU-Sim PTX: Parsing backprop-rodinia-3.2.sm_61.ptx
GPGPU-Sim PTX: Warning %p0 was declared previous at backprop-rodinia-3.1.sm_60.ptx:26 skipping new declaration
GPGPU-Sim PTX: Warning %p1 was declared previous at backprop-rodinia-3.1.sm_60.ptx:26 skipping new declaration
GPGPU-Sim PTX: Warning %p2 was declared previous at backprop-rodinia-3.1.sm_60.ptx:26 skipping new declaration
GPGPU-Sim PTX: Warning %p3 was declared previous at backprop-rodinia-3.1.sm_60.ptx:26 skipping new declaration
GPGPU-Sim PTX: Warning %p4 was declared previous at backprop-rodinia-3.1.sm_60.ptx:26 skipping new declaration
GPGPU-Sim PTX: Warning %p5 was declared previous at backprop-rodinia-3.1.sm_60.ptx:26 skipping new declaration
GPGPU-Sim PTX: Warning %f0 was declared previous at backprop-rodinia-3.1.sm_60.ptx:27 skipping new declaration
GPGPU-Sim PTX: Warning %f1 was declared previous at backprop-rodinia-3.1.sm_60.ptx:27 skipping new declaration
GPGPU-Sim PTX: Warning %f2 was declared previous at backprop-rodinia-3.1.sm_60.ptx:27 skipping new declaration
GPGPU-Sim PTX: Warning %f3 was declared previous at backprop-rodinia-3.1.sm_60.ptx:27 skipping new declaration
GPGPU-Sim PTX: Warning %f4 was declared previous at backprop-rodinia-3.1.sm_60.ptx:27 skipping new declaration
GPGPU-Sim PTX: Warning %f5 was declared previous at backprop-rodinia-3.1.sm_60.ptx:27 skipping new declaration
GPGPU-Sim PTX: Warning %f6 was declared previous at backprop-rodinia-3.1.sm_60.ptx:27 skipping new declaration
GPGPU-Sim PTX: Warning %f7 was declared previous at backprop-rodinia-3.1.sm_60.ptx:27 skipping new declaration
GPGPU-Sim PTX: Warning %f8 was declared previous at backprop-rodinia-3.1.sm_60.ptx:27 skipping new declaration
GPGPU-Sim PTX: Warning %f9 was declared previous at backprop-rodinia-3.1.sm_60.ptx:27 skipping new declaration
GPGPU-Sim PTX: Warning %f10 was declared previous at backprop-rodinia-3.1.sm_60.ptx:27 skipping new declaration
GPGPU-Sim PTX: Warning %f11 was declared previous at backprop-rodinia-3.1.sm_60.ptx:27 skipping new declaration
GPGPU-Sim PTX: Warning %f12 was declared previous at backprop-rodinia-3.1.sm_60.ptx:27 skipping new declaration
GPGPU-Sim PTX: Warning %f13 was declared previous at backprop-rodinia-3.1.sm_60.ptx:27 skipping new declaration
GPGPU-Sim PTX: Warning %f14 was declared previous at backprop-rodinia-3.1.sm_60.ptx:27 skipping new declaration
GPGPU-Sim PTX: Warning %f15 was declared previous at backprop-rodinia-3.1.sm_60.ptx:27 skipping new declaration
GPGPU-Sim PTX: Warning %f16 was declared previous at backprop-rodinia-3.1.sm_60.ptx:27 skipping new declaration
GPGPU-Sim PTX: Warning %f17 was declared previous at backprop-rodinia-3.1.sm_60.ptx:27 skipping new declaration
GPGPU-Sim PTX: Warning %f18 was declared previous at backprop-rodinia-3.1.sm_60.ptx:27 skipping new declaration
GPGPU-Sim PTX: Warning %f19 was declared previous at backprop-rodinia-3.1.sm_60.ptx:27 skipping new declaration
GPGPU-Sim PTX: Warning %f20 was declared previous at backprop-rodinia-3.1.sm_60.ptx:27 skipping new declaration
GPGPU-Sim PTX: Warning %r0 was declared previous at backprop-rodinia-3.1.sm_60.ptx:28 skipping new declaration
GPGPU-Sim PTX: Warning %r1 was declared previous at backprop-rodinia-3.1.sm_60.ptx:28 skipping new declaration
GPGPU-Sim PTX: Warning %r2 was declared previous at backprop-rodinia-3.1.sm_60.ptx:28 skipping new declaration
GPGPU-Sim PTX: Warning %r3 was declared previous at backprop-rodinia-3.1.sm_60.ptx:28 skipping new declaration
GPGPU-Sim PTX: Warning %r4 was declared previous at backprop-rodinia-3.1.sm_60.ptx:28 skipping new declaration
GPGPU-Sim PTX: Warning %r5 was declared previous at backprop-rodinia-3.1.sm_60.ptx:28 skipping new declaration
GPGPU-Sim PTX: Warning %r6 was declared previous at backprop-rodinia-3.1.sm_60.ptx:28 skipping new declaration
GPGPU-Sim PTX: Warning %r7 was declared previous at backprop-rodinia-3.1.sm_60.ptx:28 skipping new declaration
GPGPU-Sim PTX: Warning %r8 was declared previous at backprop-rodinia-3.1.sm_60.ptx:28 skipping new declaration
GPGPU-Sim PTX: Warning %r9 was declared previous at backprop-rodinia-3.1.sm_60.ptx:28 skipping new declaration
GPGPU-Sim PTX: Warning %r10 was declared previous at backprop-rodinia-3.1.sm_60.ptx:28 skipping new declaration
GPGPU-Sim PTX: Warning %r11 was declared previous at backprop-rodinia-3.1.sm_60.ptx:28 skipping new declaration
GPGPU-Sim PTX: Warning %r12 was declared previous at backprop-rodinia-3.1.sm_60.ptx:28 skipping new declaration
GPGPU-Sim PTX: Warning %r13 was declared previous at backprop-rodinia-3.1.sm_60.ptx:28 skipping new declaration
GPGPU-Sim PTX: Warning %r14 was declared previous at backprop-rodinia-3.1.sm_60.ptx:28 skipping new declaration
GPGPU-Sim PTX: Warning %r15 was declared previous at backprop-rodinia-3.1.sm_60.ptx:28 skipping new declaration
GPGPU-Sim PTX: Warning %r16 was declared previous at backprop-rodinia-3.1.sm_60.ptx:28 skipping new declaration
GPGPU-Sim PTX: Warning %r17 was declared previous at backprop-rodinia-3.1.sm_60.ptx:28 skipping new declaration
GPGPU-Sim PTX: Warning %r18 was declared previous at backprop-rodinia-3.1.sm_60.ptx:28 skipping new declaration
GPGPU-Sim PTX: Warning %r19 was declared previous at backprop-rodinia-3.1.sm_60.ptx:28 skipping new declaration
GPGPU-Sim PTX: Warning %r20 was declared previous at backprop-rodinia-3.1.sm_60.ptx:28 skipping new declaration
GPGPU-Sim PTX: Warning %r21 was declared previous at backprop-rodinia-3.1.sm_60.ptx:28 skipping new declaration
GPGPU-Sim PTX: Warning %r22 was declared previous at backprop-rodinia-3.1.sm_60.ptx:28 skipping new declaration
GPGPU-Sim PTX: Warning %r23 was declared previous at backprop-rodinia-3.1.sm_60.ptx:28 skipping new declaration
GPGPU-Sim PTX: Warning %r24 was declared previous at backprop-rodinia-3.1.sm_60.ptx:28 skipping new declaration
GPGPU-Sim PTX: Warning %r25 was declared previous at backprop-rodinia-3.1.sm_60.ptx:28 skipping new declaration
GPGPU-Sim PTX: Warning %r26 was declared previous at backprop-rodinia-3.1.sm_60.ptx:28 skipping new declaration
GPGPU-Sim PTX: Warning %r27 was declared previous at backprop-rodinia-3.1.sm_60.ptx:28 skipping new declaration
GPGPU-Sim PTX: Warning %r28 was declared previous at backprop-rodinia-3.1.sm_60.ptx:28 skipping new declaration
GPGPU-Sim PTX: Warning %r29 was declared previous at backprop-rodinia-3.1.sm_60.ptx:28 skipping new declaration
GPGPU-Sim PTX: Warning %r30 was declared previous at backprop-rodinia-3.1.sm_60.ptx:28 skipping new declaration
GPGPU-Sim PTX: Warning %r31 was declared previous at backprop-rodinia-3.1.sm_60.ptx:28 skipping new declaration
GPGPU-Sim PTX: Warning %r32 was declared previous at backprop-rodinia-3.1.sm_60.ptx:28 skipping new declaration
GPGPU-Sim PTX: Warning %r33 was declared previous at backprop-rodinia-3.1.sm_60.ptx:28 skipping new declaration
GPGPU-Sim PTX: Warning %r34 was declared previous at backprop-rodinia-3.1.sm_60.ptx:28 skipping new declaration
GPGPU-Sim PTX: Warning %r35 was declared previous at backprop-rodinia-3.1.sm_60.ptx:28 skipping new declaration
GPGPU-Sim PTX: Warning %r36 was declared previous at backprop-rodinia-3.1.sm_60.ptx:28 skipping new declaration
GPGPU-Sim PTX: Warning %rd0 was declared previous at backprop-rodinia-3.1.sm_60.ptx:29 skipping new declaration
GPGPU-Sim PTX: Warning %rd1 was declared previous at backprop-rodinia-3.1.sm_60.ptx:29 skipping new declaration
GPGPU-Sim PTX: Warning %rd2 was declared previous at backprop-rodinia-3.1.sm_60.ptx:29 skipping new declaration
GPGPU-Sim PTX: Warning %rd3 was declared previous at backprop-rodinia-3.1.sm_60.ptx:29 skipping new declaration
GPGPU-Sim PTX: Warning %rd4 was declared previous at backprop-rodinia-3.1.sm_60.ptx:29 skipping new declaration
GPGPU-Sim PTX: Warning %rd5 was declared previous at backprop-rodinia-3.1.sm_60.ptx:29 skipping new declaration
GPGPU-Sim PTX: Warning %rd6 was declared previous at backprop-rodinia-3.1.sm_60.ptx:29 skipping new declaration
GPGPU-Sim PTX: Warning %rd7 was declared previous at backprop-rodinia-3.1.sm_60.ptx:29 skipping new declaration
GPGPU-Sim PTX: Warning %rd8 was declared previous at backprop-rodinia-3.1.sm_60.ptx:29 skipping new declaration
GPGPU-Sim PTX: Warning %rd9 was declared previous at backprop-rodinia-3.1.sm_60.ptx:29 skipping new declaration
GPGPU-Sim PTX: Warning %rd10 was declared previous at backprop-rodinia-3.1.sm_60.ptx:29 skipping new declaration
GPGPU-Sim PTX: Warning %rd11 was declared previous at backprop-rodinia-3.1.sm_60.ptx:29 skipping new declaration
GPGPU-Sim PTX: Warning %rd12 was declared previous at backprop-rodinia-3.1.sm_60.ptx:29 skipping new declaration
GPGPU-Sim PTX: Warning _ZZ22bpnn_layerforward_CUDAPfS_S_S_iiE10input_node was declared previous at backprop-rodinia-3.1.sm_60.ptx:31 skipping new declaration
GPGPU-Sim PTX: Warning _ZZ22bpnn_layerforward_CUDAPfS_S_S_iiE13weight_matrix was declared previous at backprop-rodinia-3.1.sm_60.ptx:33 skipping new declaration
GPGPU-Sim PTX: instruction assembly for function '_Z22bpnn_layerforward_CUDAPfS_S_S_ii'...   done.
GPGPU-Sim PTX: Warning %p0 was declared previous at backprop-rodinia-3.1.sm_60.ptx:145 skipping new declaration
GPGPU-Sim PTX: Warning %p1 was declared previous at backprop-rodinia-3.1.sm_60.ptx:145 skipping new declaration
GPGPU-Sim PTX: Warning %f0 was declared previous at backprop-rodinia-3.1.sm_60.ptx:146 skipping new declaration
GPGPU-Sim PTX: Warning %f1 was declared previous at backprop-rodinia-3.1.sm_60.ptx:146 skipping new declaration
GPGPU-Sim PTX: Warning %f2 was declared previous at backprop-rodinia-3.1.sm_60.ptx:146 skipping new declaration
GPGPU-Sim PTX: Warning %f3 was declared previous at backprop-rodinia-3.1.sm_60.ptx:146 skipping new declaration
GPGPU-Sim PTX: Warning %f4 was declared previous at backprop-rodinia-3.1.sm_60.ptx:146 skipping new declaration
GPGPU-Sim PTX: Warning %f5 was declared previous at backprop-rodinia-3.1.sm_60.ptx:146 skipping new declaration
GPGPU-Sim PTX: Warning %f6 was declared previous at backprop-rodinia-3.1.sm_60.ptx:146 skipping new declaration
GPGPU-Sim PTX: Warning %f7 was declared previous at backprop-rodinia-3.1.sm_60.ptx:146 skipping new declaration
GPGPU-Sim PTX: Warning %f8 was declared previous at backprop-rodinia-3.1.sm_60.ptx:146 skipping new declaration
GPGPU-Sim PTX: Warning %f9 was declared previous at backprop-rodinia-3.1.sm_60.ptx:146 skipping new declaration
GPGPU-Sim PTX: Warning %f10 was declared previous at backprop-rodinia-3.1.sm_60.ptx:146 skipping new declaration
GPGPU-Sim PTX: Warning %f11 was declared previous at backprop-rodinia-3.1.sm_60.ptx:146 skipping new declaration
GPGPU-Sim PTX: Warning %f12 was declared previous at backprop-rodinia-3.1.sm_60.ptx:146 skipping new declaration
GPGPU-Sim PTX: Warning %f13 was declared previous at backprop-rodinia-3.1.sm_60.ptx:146 skipping new declaration
GPGPU-Sim PTX: Warning %f14 was declared previous at backprop-rodinia-3.1.sm_60.ptx:146 skipping new declaration
GPGPU-Sim PTX: Warning %f15 was declared previous at backprop-rodinia-3.1.sm_60.ptx:146 skipping new declaration
GPGPU-Sim PTX: Warning %f16 was declared previous at backprop-rodinia-3.1.sm_60.ptx:146 skipping new declaration
GPGPU-Sim PTX: Warning %r0 was declared previous at backprop-rodinia-3.1.sm_60.ptx:147 skipping new declaration
GPGPU-Sim PTX: Warning %r1 was declared previous at backprop-rodinia-3.1.sm_60.ptx:147 skipping new declaration
GPGPU-Sim PTX: Warning %r2 was declared previous at backprop-rodinia-3.1.sm_60.ptx:147 skipping new declaration
GPGPU-Sim PTX: Warning %r3 was declared previous at backprop-rodinia-3.1.sm_60.ptx:147 skipping new declaration
GPGPU-Sim PTX: Warning %r4 was declared previous at backprop-rodinia-3.1.sm_60.ptx:147 skipping new declaration
GPGPU-Sim PTX: Warning %r5 was declared previous at backprop-rodinia-3.1.sm_60.ptx:147 skipping new declaration
GPGPU-Sim PTX: Warning %r6 was declared previous at backprop-rodinia-3.1.sm_60.ptx:147 skipping new declaration
GPGPU-Sim PTX: Warning %r7 was declared previous at backprop-rodinia-3.1.sm_60.ptx:147 skipping new declaration
GPGPU-Sim PTX: Warning %r8 was declared previous at backprop-rodinia-3.1.sm_60.ptx:147 skipping new declaration
GPGPU-Sim PTX: Warning %r9 was declared previous at backprop-rodinia-3.1.sm_60.ptx:147 skipping new declaration
GPGPU-Sim PTX: Warning %r10 was declared previous at backprop-rodinia-3.1.sm_60.ptx:147 skipping new declaration
GPGPU-Sim PTX: Warning %r11 was declared previous at backprop-rodinia-3.1.sm_60.ptx:147 skipping new declaration
GPGPU-Sim PTX: Warning %fd0 was declared previous at backprop-rodinia-3.1.sm_60.ptx:148 skipping new declaration
GPGPU-Sim PTX: Warning %fd1 was declared previous at backprop-rodinia-3.1.sm_60.ptx:148 skipping new declaration
GPGPU-Sim PTX: Warning %fd2 was declared previous at backprop-rodinia-3.1.sm_60.ptx:148 skipping new declaration
GPGPU-Sim PTX: Warning %fd3 was declared previous at backprop-rodinia-3.1.sm_60.ptx:148 skipping new declaration
GPGPU-Sim PTX: Warning %fd4 was declared previous at backprop-rodinia-3.1.sm_60.ptx:148 skipping new declaration
GPGPU-Sim PTX: Warning %fd5 was declared previous at backprop-rodinia-3.1.sm_60.ptx:148 skipping new declaration
GPGPU-Sim PTX: Warning %fd6 was declared previous at backprop-rodinia-3.1.sm_60.ptx:148 skipping new declaration
GPGPU-Sim PTX: Warning %fd7 was declared previous at backprop-rodinia-3.1.sm_60.ptx:148 skipping new declaration
GPGPU-Sim PTX: Warning %fd8 was declared previous at backprop-rodinia-3.1.sm_60.ptx:148 skipping new declaration
GPGPU-Sim PTX: Warning %fd9 was declared previous at backprop-rodinia-3.1.sm_60.ptx:148 skipping new declaration
GPGPU-Sim PTX: Warning %fd10 was declared previous at backprop-rodinia-3.1.sm_60.ptx:148 skipping new declaration
GPGPU-Sim PTX: Warning %fd11 was declared previous at backprop-rodinia-3.1.sm_60.ptx:148 skipping new declaration
GPGPU-Sim PTX: Warning %fd12 was declared previous at backprop-rodinia-3.1.sm_60.ptx:148 skipping new declaration
GPGPU-Sim PTX: Warning %fd13 was declared previous at backprop-rodinia-3.1.sm_60.ptx:148 skipping new declaration
GPGPU-Sim PTX: Warning %fd14 was declared previous at backprop-rodinia-3.1.sm_60.ptx:148 skipping new declaration
GPGPU-Sim PTX: Warning %fd15 was declared previous at backprop-rodinia-3.1.sm_60.ptx:148 skipping new declaration
GPGPU-Sim PTX: Warning %fd16 was declared previous at backprop-rodinia-3.1.sm_60.ptx:148 skipping new declaration
GPGPU-Sim PTX: Warning %fd17 was declared previous at backprop-rodinia-3.1.sm_60.ptx:148 skipping new declaration
GPGPU-Sim PTX: Warning %fd18 was declared previous at backprop-rodinia-3.1.sm_60.ptx:148 skipping new declaration
GPGPU-Sim PTX: Warning %fd19 was declared previous at backprop-rodinia-3.1.sm_60.ptx:148 skipping new declaration
GPGPU-Sim PTX: Warning %fd20 was declared previous at backprop-rodinia-3.1.sm_60.ptx:148 skipping new declaration
GPGPU-Sim PTX: Warning %fd21 was declared previous at backprop-rodinia-3.1.sm_60.ptx:148 skipping new declaration
GPGPU-Sim PTX: Warning %fd22 was declared previous at backprop-rodinia-3.1.sm_60.ptx:148 skipping new declaration
GPGPU-Sim PTX: Warning %fd23 was declared previous at backprop-rodinia-3.1.sm_60.ptx:148 skipping new declaration
GPGPU-Sim PTX: Warning %fd24 was declared previous at backprop-rodinia-3.1.sm_60.ptx:148 skipping new declaration
GPGPU-Sim PTX: Warning %rd0 was declared previous at backprop-rodinia-3.1.sm_60.ptx:149 skipping new declaration
GPGPU-Sim PTX: Warning %rd1 was declared previous at backprop-rodinia-3.1.sm_60.ptx:149 skipping new declaration
GPGPU-Sim PTX: Warning %rd2 was declared previous at backprop-rodinia-3.1.sm_60.ptx:149 skipping new declaration
GPGPU-Sim PTX: Warning %rd3 was declared previous at backprop-rodinia-3.1.sm_60.ptx:149 skipping new declaration
GPGPU-Sim PTX: Warning %rd4 was declared previous at backprop-rodinia-3.1.sm_60.ptx:149 skipping new declaration
GPGPU-Sim PTX: Warning %rd5 was declared previous at backprop-rodinia-3.1.sm_60.ptx:149 skipping new declaration
GPGPU-Sim PTX: Warning %rd6 was declared previous at backprop-rodinia-3.1.sm_60.ptx:149 skipping new declaration
GPGPU-Sim PTX: Warning %rd7 was declared previous at backprop-rodinia-3.1.sm_60.ptx:149 skipping new declaration
GPGPU-Sim PTX: Warning %rd8 was declared previous at backprop-rodinia-3.1.sm_60.ptx:149 skipping new declaration
GPGPU-Sim PTX: Warning %rd9 was declared previous at backprop-rodinia-3.1.sm_60.ptx:149 skipping new declaration
GPGPU-Sim PTX: Warning %rd10 was declared previous at backprop-rodinia-3.1.sm_60.ptx:149 skipping new declaration
GPGPU-Sim PTX: Warning %rd11 was declared previous at backprop-rodinia-3.1.sm_60.ptx:149 skipping new declaration
GPGPU-Sim PTX: Warning %rd12 was declared previous at backprop-rodinia-3.1.sm_60.ptx:149 skipping new declaration
GPGPU-Sim PTX: Warning %rd13 was declared previous at backprop-rodinia-3.1.sm_60.ptx:149 skipping new declaration
GPGPU-Sim PTX: Warning %rd14 was declared previous at backprop-rodinia-3.1.sm_60.ptx:149 skipping new declaration
GPGPU-Sim PTX: Warning %rd15 was declared previous at backprop-rodinia-3.1.sm_60.ptx:149 skipping new declaration
GPGPU-Sim PTX: Warning %rd16 was declared previous at backprop-rodinia-3.1.sm_60.ptx:149 skipping new declaration
GPGPU-Sim PTX: Warning %rd17 was declared previous at backprop-rodinia-3.1.sm_60.ptx:149 skipping new declaration
GPGPU-Sim PTX: Warning %rd18 was declared previous at backprop-rodinia-3.1.sm_60.ptx:149 skipping new declaration
GPGPU-Sim PTX: instruction assembly for function '_Z24bpnn_adjust_weights_cudaPfiS_iS_S_'...   done.
GPGPU-Sim PTX: finished parsing EMBEDDED .ptx file backprop-rodinia-3.2.sm_61.ptx
GPGPU-Sim PTX: Parsing backprop-rodinia-3.3.sm_70.ptx
GPGPU-Sim PTX: Warning %p0 was declared previous at backprop-rodinia-3.1.sm_60.ptx:26 skipping new declaration
GPGPU-Sim PTX: Warning %p1 was declared previous at backprop-rodinia-3.1.sm_60.ptx:26 skipping new declaration
GPGPU-Sim PTX: Warning %p2 was declared previous at backprop-rodinia-3.1.sm_60.ptx:26 skipping new declaration
GPGPU-Sim PTX: Warning %p3 was declared previous at backprop-rodinia-3.1.sm_60.ptx:26 skipping new declaration
GPGPU-Sim PTX: Warning %p4 was declared previous at backprop-rodinia-3.1.sm_60.ptx:26 skipping new declaration
GPGPU-Sim PTX: Warning %p5 was declared previous at backprop-rodinia-3.1.sm_60.ptx:26 skipping new declaration
GPGPU-Sim PTX: Warning %f0 was declared previous at backprop-rodinia-3.1.sm_60.ptx:27 skipping new declaration
GPGPU-Sim PTX: Warning %f1 was declared previous at backprop-rodinia-3.1.sm_60.ptx:27 skipping new declaration
GPGPU-Sim PTX: Warning %f2 was declared previous at backprop-rodinia-3.1.sm_60.ptx:27 skipping new declaration
GPGPU-Sim PTX: Warning %f3 was declared previous at backprop-rodinia-3.1.sm_60.ptx:27 skipping new declaration
GPGPU-Sim PTX: Warning %f4 was declared previous at backprop-rodinia-3.1.sm_60.ptx:27 skipping new declaration
GPGPU-Sim PTX: Warning %f5 was declared previous at backprop-rodinia-3.1.sm_60.ptx:27 skipping new declaration
GPGPU-Sim PTX: Warning %f6 was declared previous at backprop-rodinia-3.1.sm_60.ptx:27 skipping new declaration
GPGPU-Sim PTX: Warning %f7 was declared previous at backprop-rodinia-3.1.sm_60.ptx:27 skipping new declaration
GPGPU-Sim PTX: Warning %f8 was declared previous at backprop-rodinia-3.1.sm_60.ptx:27 skipping new declaration
GPGPU-Sim PTX: Warning %f9 was declared previous at backprop-rodinia-3.1.sm_60.ptx:27 skipping new declaration
GPGPU-Sim PTX: Warning %f10 was declared previous at backprop-rodinia-3.1.sm_60.ptx:27 skipping new declaration
GPGPU-Sim PTX: Warning %f11 was declared previous at backprop-rodinia-3.1.sm_60.ptx:27 skipping new declaration
GPGPU-Sim PTX: Warning %f12 was declared previous at backprop-rodinia-3.1.sm_60.ptx:27 skipping new declaration
GPGPU-Sim PTX: Warning %f13 was declared previous at backprop-rodinia-3.1.sm_60.ptx:27 skipping new declaration
GPGPU-Sim PTX: Warning %f14 was declared previous at backprop-rodinia-3.1.sm_60.ptx:27 skipping new declaration
GPGPU-Sim PTX: Warning %f15 was declared previous at backprop-rodinia-3.1.sm_60.ptx:27 skipping new declaration
GPGPU-Sim PTX: Warning %f16 was declared previous at backprop-rodinia-3.1.sm_60.ptx:27 skipping new declaration
GPGPU-Sim PTX: Warning %f17 was declared previous at backprop-rodinia-3.1.sm_60.ptx:27 skipping new declaration
GPGPU-Sim PTX: Warning %f18 was declared previous at backprop-rodinia-3.1.sm_60.ptx:27 skipping new declaration
GPGPU-Sim PTX: Warning %f19 was declared previous at backprop-rodinia-3.1.sm_60.ptx:27 skipping new declaration
GPGPU-Sim PTX: Warning %f20 was declared previous at backprop-rodinia-3.1.sm_60.ptx:27 skipping new declaration
GPGPU-Sim PTX: Warning %r0 was declared previous at backprop-rodinia-3.1.sm_60.ptx:28 skipping new declaration
GPGPU-Sim PTX: Warning %r1 was declared previous at backprop-rodinia-3.1.sm_60.ptx:28 skipping new declaration
GPGPU-Sim PTX: Warning %r2 was declared previous at backprop-rodinia-3.1.sm_60.ptx:28 skipping new declaration
GPGPU-Sim PTX: Warning %r3 was declared previous at backprop-rodinia-3.1.sm_60.ptx:28 skipping new declaration
GPGPU-Sim PTX: Warning %r4 was declared previous at backprop-rodinia-3.1.sm_60.ptx:28 skipping new declaration
GPGPU-Sim PTX: Warning %r5 was declared previous at backprop-rodinia-3.1.sm_60.ptx:28 skipping new declaration
GPGPU-Sim PTX: Warning %r6 was declared previous at backprop-rodinia-3.1.sm_60.ptx:28 skipping new declaration
GPGPU-Sim PTX: Warning %r7 was declared previous at backprop-rodinia-3.1.sm_60.ptx:28 skipping new declaration
GPGPU-Sim PTX: Warning %r8 was declared previous at backprop-rodinia-3.1.sm_60.ptx:28 skipping new declaration
GPGPU-Sim PTX: Warning %r9 was declared previous at backprop-rodinia-3.1.sm_60.ptx:28 skipping new declaration
GPGPU-Sim PTX: Warning %r10 was declared previous at backprop-rodinia-3.1.sm_60.ptx:28 skipping new declaration
GPGPU-Sim PTX: Warning %r11 was declared previous at backprop-rodinia-3.1.sm_60.ptx:28 skipping new declaration
GPGPU-Sim PTX: Warning %r12 was declared previous at backprop-rodinia-3.1.sm_60.ptx:28 skipping new declaration
GPGPU-Sim PTX: Warning %r13 was declared previous at backprop-rodinia-3.1.sm_60.ptx:28 skipping new declaration
GPGPU-Sim PTX: Warning %r14 was declared previous at backprop-rodinia-3.1.sm_60.ptx:28 skipping new declaration
GPGPU-Sim PTX: Warning %r15 was declared previous at backprop-rodinia-3.1.sm_60.ptx:28 skipping new declaration
GPGPU-Sim PTX: Warning %r16 was declared previous at backprop-rodinia-3.1.sm_60.ptx:28 skipping new declaration
GPGPU-Sim PTX: Warning %r17 was declared previous at backprop-rodinia-3.1.sm_60.ptx:28 skipping new declaration
GPGPU-Sim PTX: Warning %r18 was declared previous at backprop-rodinia-3.1.sm_60.ptx:28 skipping new declaration
GPGPU-Sim PTX: Warning %r19 was declared previous at backprop-rodinia-3.1.sm_60.ptx:28 skipping new declaration
GPGPU-Sim PTX: Warning %r20 was declared previous at backprop-rodinia-3.1.sm_60.ptx:28 skipping new declaration
GPGPU-Sim PTX: Warning %r21 was declared previous at backprop-rodinia-3.1.sm_60.ptx:28 skipping new declaration
GPGPU-Sim PTX: Warning %r22 was declared previous at backprop-rodinia-3.1.sm_60.ptx:28 skipping new declaration
GPGPU-Sim PTX: Warning %r23 was declared previous at backprop-rodinia-3.1.sm_60.ptx:28 skipping new declaration
GPGPU-Sim PTX: Warning %r24 was declared previous at backprop-rodinia-3.1.sm_60.ptx:28 skipping new declaration
GPGPU-Sim PTX: Warning %r25 was declared previous at backprop-rodinia-3.1.sm_60.ptx:28 skipping new declaration
GPGPU-Sim PTX: Warning %r26 was declared previous at backprop-rodinia-3.1.sm_60.ptx:28 skipping new declaration
GPGPU-Sim PTX: Warning %r27 was declared previous at backprop-rodinia-3.1.sm_60.ptx:28 skipping new declaration
GPGPU-Sim PTX: Warning %r28 was declared previous at backprop-rodinia-3.1.sm_60.ptx:28 skipping new declaration
GPGPU-Sim PTX: Warning %r29 was declared previous at backprop-rodinia-3.1.sm_60.ptx:28 skipping new declaration
GPGPU-Sim PTX: Warning %r30 was declared previous at backprop-rodinia-3.1.sm_60.ptx:28 skipping new declaration
GPGPU-Sim PTX: Warning %r31 was declared previous at backprop-rodinia-3.1.sm_60.ptx:28 skipping new declaration
GPGPU-Sim PTX: Warning %r32 was declared previous at backprop-rodinia-3.1.sm_60.ptx:28 skipping new declaration
GPGPU-Sim PTX: Warning %r33 was declared previous at backprop-rodinia-3.1.sm_60.ptx:28 skipping new declaration
GPGPU-Sim PTX: Warning %r34 was declared previous at backprop-rodinia-3.1.sm_60.ptx:28 skipping new declaration
GPGPU-Sim PTX: Warning %r35 was declared previous at backprop-rodinia-3.1.sm_60.ptx:28 skipping new declaration
GPGPU-Sim PTX: Warning %r36 was declared previous at backprop-rodinia-3.1.sm_60.ptx:28 skipping new declaration
GPGPU-Sim PTX: Warning %rd0 was declared previous at backprop-rodinia-3.1.sm_60.ptx:29 skipping new declaration
GPGPU-Sim PTX: Warning %rd1 was declared previous at backprop-rodinia-3.1.sm_60.ptx:29 skipping new declaration
GPGPU-Sim PTX: Warning %rd2 was declared previous at backprop-rodinia-3.1.sm_60.ptx:29 skipping new declaration
GPGPU-Sim PTX: Warning %rd3 was declared previous at backprop-rodinia-3.1.sm_60.ptx:29 skipping new declaration
GPGPU-Sim PTX: Warning %rd4 was declared previous at backprop-rodinia-3.1.sm_60.ptx:29 skipping new declaration
GPGPU-Sim PTX: Warning %rd5 was declared previous at backprop-rodinia-3.1.sm_60.ptx:29 skipping new declaration
GPGPU-Sim PTX: Warning %rd6 was declared previous at backprop-rodinia-3.1.sm_60.ptx:29 skipping new declaration
GPGPU-Sim PTX: Warning %rd7 was declared previous at backprop-rodinia-3.1.sm_60.ptx:29 skipping new declaration
GPGPU-Sim PTX: Warning %rd8 was declared previous at backprop-rodinia-3.1.sm_60.ptx:29 skipping new declaration
GPGPU-Sim PTX: Warning %rd9 was declared previous at backprop-rodinia-3.1.sm_60.ptx:29 skipping new declaration
GPGPU-Sim PTX: Warning %rd10 was declared previous at backprop-rodinia-3.1.sm_60.ptx:29 skipping new declaration
GPGPU-Sim PTX: Warning %rd11 was declared previous at backprop-rodinia-3.1.sm_60.ptx:29 skipping new declaration
GPGPU-Sim PTX: Warning %rd12 was declared previous at backprop-rodinia-3.1.sm_60.ptx:29 skipping new declaration
GPGPU-Sim PTX: Warning _ZZ22bpnn_layerforward_CUDAPfS_S_S_iiE10input_node was declared previous at backprop-rodinia-3.1.sm_60.ptx:31 skipping new declaration
GPGPU-Sim PTX: Warning _ZZ22bpnn_layerforward_CUDAPfS_S_S_iiE13weight_matrix was declared previous at backprop-rodinia-3.1.sm_60.ptx:33 skipping new declaration
GPGPU-Sim PTX: instruction assembly for function '_Z22bpnn_layerforward_CUDAPfS_S_S_ii'...   done.
GPGPU-Sim PTX: Warning %p0 was declared previous at backprop-rodinia-3.1.sm_60.ptx:145 skipping new declaration
GPGPU-Sim PTX: Warning %p1 was declared previous at backprop-rodinia-3.1.sm_60.ptx:145 skipping new declaration
GPGPU-Sim PTX: Warning %f0 was declared previous at backprop-rodinia-3.1.sm_60.ptx:146 skipping new declaration
GPGPU-Sim PTX: Warning %f1 was declared previous at backprop-rodinia-3.1.sm_60.ptx:146 skipping new declaration
GPGPU-Sim PTX: Warning %f2 was declared previous at backprop-rodinia-3.1.sm_60.ptx:146 skipping new declaration
GPGPU-Sim PTX: Warning %f3 was declared previous at backprop-rodinia-3.1.sm_60.ptx:146 skipping new declaration
GPGPU-Sim PTX: Warning %f4 was declared previous at backprop-rodinia-3.1.sm_60.ptx:146 skipping new declaration
GPGPU-Sim PTX: Warning %f5 was declared previous at backprop-rodinia-3.1.sm_60.ptx:146 skipping new declaration
GPGPU-Sim PTX: Warning %f6 was declared previous at backprop-rodinia-3.1.sm_60.ptx:146 skipping new declaration
GPGPU-Sim PTX: Warning %f7 was declared previous at backprop-rodinia-3.1.sm_60.ptx:146 skipping new declaration
GPGPU-Sim PTX: Warning %f8 was declared previous at backprop-rodinia-3.1.sm_60.ptx:146 skipping new declaration
GPGPU-Sim PTX: Warning %f9 was declared previous at backprop-rodinia-3.1.sm_60.ptx:146 skipping new declaration
GPGPU-Sim PTX: Warning %f10 was declared previous at backprop-rodinia-3.1.sm_60.ptx:146 skipping new declaration
GPGPU-Sim PTX: Warning %f11 was declared previous at backprop-rodinia-3.1.sm_60.ptx:146 skipping new declaration
GPGPU-Sim PTX: Warning %f12 was declared previous at backprop-rodinia-3.1.sm_60.ptx:146 skipping new declaration
GPGPU-Sim PTX: Warning %f13 was declared previous at backprop-rodinia-3.1.sm_60.ptx:146 skipping new declaration
GPGPU-Sim PTX: Warning %f14 was declared previous at backprop-rodinia-3.1.sm_60.ptx:146 skipping new declaration
GPGPU-Sim PTX: Warning %f15 was declared previous at backprop-rodinia-3.1.sm_60.ptx:146 skipping new declaration
GPGPU-Sim PTX: Warning %f16 was declared previous at backprop-rodinia-3.1.sm_60.ptx:146 skipping new declaration
GPGPU-Sim PTX: Warning %r0 was declared previous at backprop-rodinia-3.1.sm_60.ptx:147 skipping new declaration
GPGPU-Sim PTX: Warning %r1 was declared previous at backprop-rodinia-3.1.sm_60.ptx:147 skipping new declaration
GPGPU-Sim PTX: Warning %r2 was declared previous at backprop-rodinia-3.1.sm_60.ptx:147 skipping new declaration
GPGPU-Sim PTX: Warning %r3 was declared previous at backprop-rodinia-3.1.sm_60.ptx:147 skipping new declaration
GPGPU-Sim PTX: Warning %r4 was declared previous at backprop-rodinia-3.1.sm_60.ptx:147 skipping new declaration
GPGPU-Sim PTX: Warning %r5 was declared previous at backprop-rodinia-3.1.sm_60.ptx:147 skipping new declaration
GPGPU-Sim PTX: Warning %r6 was declared previous at backprop-rodinia-3.1.sm_60.ptx:147 skipping new declaration
GPGPU-Sim PTX: Warning %r7 was declared previous at backprop-rodinia-3.1.sm_60.ptx:147 skipping new declaration
GPGPU-Sim PTX: Warning %r8 was declared previous at backprop-rodinia-3.1.sm_60.ptx:147 skipping new declaration
GPGPU-Sim PTX: Warning %r9 was declared previous at backprop-rodinia-3.1.sm_60.ptx:147 skipping new declaration
GPGPU-Sim PTX: Warning %r10 was declared previous at backprop-rodinia-3.1.sm_60.ptx:147 skipping new declaration
GPGPU-Sim PTX: Warning %r11 was declared previous at backprop-rodinia-3.1.sm_60.ptx:147 skipping new declaration
GPGPU-Sim PTX: Warning %fd0 was declared previous at backprop-rodinia-3.1.sm_60.ptx:148 skipping new declaration
GPGPU-Sim PTX: Warning %fd1 was declared previous at backprop-rodinia-3.1.sm_60.ptx:148 skipping new declaration
GPGPU-Sim PTX: Warning %fd2 was declared previous at backprop-rodinia-3.1.sm_60.ptx:148 skipping new declaration
GPGPU-Sim PTX: Warning %fd3 was declared previous at backprop-rodinia-3.1.sm_60.ptx:148 skipping new declaration
GPGPU-Sim PTX: Warning %fd4 was declared previous at backprop-rodinia-3.1.sm_60.ptx:148 skipping new declaration
GPGPU-Sim PTX: Warning %fd5 was declared previous at backprop-rodinia-3.1.sm_60.ptx:148 skipping new declaration
GPGPU-Sim PTX: Warning %fd6 was declared previous at backprop-rodinia-3.1.sm_60.ptx:148 skipping new declaration
GPGPU-Sim PTX: Warning %fd7 was declared previous at backprop-rodinia-3.1.sm_60.ptx:148 skipping new declaration
GPGPU-Sim PTX: Warning %fd8 was declared previous at backprop-rodinia-3.1.sm_60.ptx:148 skipping new declaration
GPGPU-Sim PTX: Warning %fd9 was declared previous at backprop-rodinia-3.1.sm_60.ptx:148 skipping new declaration
GPGPU-Sim PTX: Warning %fd10 was declared previous at backprop-rodinia-3.1.sm_60.ptx:148 skipping new declaration
GPGPU-Sim PTX: Warning %fd11 was declared previous at backprop-rodinia-3.1.sm_60.ptx:148 skipping new declaration
GPGPU-Sim PTX: Warning %fd12 was declared previous at backprop-rodinia-3.1.sm_60.ptx:148 skipping new declaration
GPGPU-Sim PTX: Warning %fd13 was declared previous at backprop-rodinia-3.1.sm_60.ptx:148 skipping new declaration
GPGPU-Sim PTX: Warning %fd14 was declared previous at backprop-rodinia-3.1.sm_60.ptx:148 skipping new declaration
GPGPU-Sim PTX: Warning %fd15 was declared previous at backprop-rodinia-3.1.sm_60.ptx:148 skipping new declaration
GPGPU-Sim PTX: Warning %fd16 was declared previous at backprop-rodinia-3.1.sm_60.ptx:148 skipping new declaration
GPGPU-Sim PTX: Warning %fd17 was declared previous at backprop-rodinia-3.1.sm_60.ptx:148 skipping new declaration
GPGPU-Sim PTX: Warning %fd18 was declared previous at backprop-rodinia-3.1.sm_60.ptx:148 skipping new declaration
GPGPU-Sim PTX: Warning %fd19 was declared previous at backprop-rodinia-3.1.sm_60.ptx:148 skipping new declaration
GPGPU-Sim PTX: Warning %fd20 was declared previous at backprop-rodinia-3.1.sm_60.ptx:148 skipping new declaration
GPGPU-Sim PTX: Warning %fd21 was declared previous at backprop-rodinia-3.1.sm_60.ptx:148 skipping new declaration
GPGPU-Sim PTX: Warning %fd22 was declared previous at backprop-rodinia-3.1.sm_60.ptx:148 skipping new declaration
GPGPU-Sim PTX: Warning %fd23 was declared previous at backprop-rodinia-3.1.sm_60.ptx:148 skipping new declaration
GPGPU-Sim PTX: Warning %fd24 was declared previous at backprop-rodinia-3.1.sm_60.ptx:148 skipping new declaration
GPGPU-Sim PTX: Warning %rd0 was declared previous at backprop-rodinia-3.1.sm_60.ptx:149 skipping new declaration
GPGPU-Sim PTX: Warning %rd1 was declared previous at backprop-rodinia-3.1.sm_60.ptx:149 skipping new declaration
GPGPU-Sim PTX: Warning %rd2 was declared previous at backprop-rodinia-3.1.sm_60.ptx:149 skipping new declaration
GPGPU-Sim PTX: Warning %rd3 was declared previous at backprop-rodinia-3.1.sm_60.ptx:149 skipping new declaration
GPGPU-Sim PTX: Warning %rd4 was declared previous at backprop-rodinia-3.1.sm_60.ptx:149 skipping new declaration
GPGPU-Sim PTX: Warning %rd5 was declared previous at backprop-rodinia-3.1.sm_60.ptx:149 skipping new declaration
GPGPU-Sim PTX: Warning %rd6 was declared previous at backprop-rodinia-3.1.sm_60.ptx:149 skipping new declaration
GPGPU-Sim PTX: Warning %rd7 was declared previous at backprop-rodinia-3.1.sm_60.ptx:149 skipping new declaration
GPGPU-Sim PTX: Warning %rd8 was declared previous at backprop-rodinia-3.1.sm_60.ptx:149 skipping new declaration
GPGPU-Sim PTX: Warning %rd9 was declared previous at backprop-rodinia-3.1.sm_60.ptx:149 skipping new declaration
GPGPU-Sim PTX: Warning %rd10 was declared previous at backprop-rodinia-3.1.sm_60.ptx:149 skipping new declaration
GPGPU-Sim PTX: Warning %rd11 was declared previous at backprop-rodinia-3.1.sm_60.ptx:149 skipping new declaration
GPGPU-Sim PTX: Warning %rd12 was declared previous at backprop-rodinia-3.1.sm_60.ptx:149 skipping new declaration
GPGPU-Sim PTX: Warning %rd13 was declared previous at backprop-rodinia-3.1.sm_60.ptx:149 skipping new declaration
GPGPU-Sim PTX: Warning %rd14 was declared previous at backprop-rodinia-3.1.sm_60.ptx:149 skipping new declaration
GPGPU-Sim PTX: Warning %rd15 was declared previous at backprop-rodinia-3.1.sm_60.ptx:149 skipping new declaration
GPGPU-Sim PTX: Warning %rd16 was declared previous at backprop-rodinia-3.1.sm_60.ptx:149 skipping new declaration
GPGPU-Sim PTX: Warning %rd17 was declared previous at backprop-rodinia-3.1.sm_60.ptx:149 skipping new declaration
GPGPU-Sim PTX: Warning %rd18 was declared previous at backprop-rodinia-3.1.sm_60.ptx:149 skipping new declaration
GPGPU-Sim PTX: instruction assembly for function '_Z24bpnn_adjust_weights_cudaPfiS_iS_S_'...   done.
GPGPU-Sim PTX: finished parsing EMBEDDED .ptx file backprop-rodinia-3.3.sm_70.ptx
GPGPU-Sim PTX: Parsing backprop-rodinia-3.4.sm_75.ptx
GPGPU-Sim PTX: Warning %p0 was declared previous at backprop-rodinia-3.1.sm_60.ptx:26 skipping new declaration
GPGPU-Sim PTX: Warning %p1 was declared previous at backprop-rodinia-3.1.sm_60.ptx:26 skipping new declaration
GPGPU-Sim PTX: Warning %p2 was declared previous at backprop-rodinia-3.1.sm_60.ptx:26 skipping new declaration
GPGPU-Sim PTX: Warning %p3 was declared previous at backprop-rodinia-3.1.sm_60.ptx:26 skipping new declaration
GPGPU-Sim PTX: Warning %p4 was declared previous at backprop-rodinia-3.1.sm_60.ptx:26 skipping new declaration
GPGPU-Sim PTX: Warning %p5 was declared previous at backprop-rodinia-3.1.sm_60.ptx:26 skipping new declaration
GPGPU-Sim PTX: Warning %f0 was declared previous at backprop-rodinia-3.1.sm_60.ptx:27 skipping new declaration
GPGPU-Sim PTX: Warning %f1 was declared previous at backprop-rodinia-3.1.sm_60.ptx:27 skipping new declaration
GPGPU-Sim PTX: Warning %f2 was declared previous at backprop-rodinia-3.1.sm_60.ptx:27 skipping new declaration
GPGPU-Sim PTX: Warning %f3 was declared previous at backprop-rodinia-3.1.sm_60.ptx:27 skipping new declaration
GPGPU-Sim PTX: Warning %f4 was declared previous at backprop-rodinia-3.1.sm_60.ptx:27 skipping new declaration
GPGPU-Sim PTX: Warning %f5 was declared previous at backprop-rodinia-3.1.sm_60.ptx:27 skipping new declaration
GPGPU-Sim PTX: Warning %f6 was declared previous at backprop-rodinia-3.1.sm_60.ptx:27 skipping new declaration
GPGPU-Sim PTX: Warning %f7 was declared previous at backprop-rodinia-3.1.sm_60.ptx:27 skipping new declaration
GPGPU-Sim PTX: Warning %f8 was declared previous at backprop-rodinia-3.1.sm_60.ptx:27 skipping new declaration
GPGPU-Sim PTX: Warning %f9 was declared previous at backprop-rodinia-3.1.sm_60.ptx:27 skipping new declaration
GPGPU-Sim PTX: Warning %f10 was declared previous at backprop-rodinia-3.1.sm_60.ptx:27 skipping new declaration
GPGPU-Sim PTX: Warning %f11 was declared previous at backprop-rodinia-3.1.sm_60.ptx:27 skipping new declaration
GPGPU-Sim PTX: Warning %f12 was declared previous at backprop-rodinia-3.1.sm_60.ptx:27 skipping new declaration
GPGPU-Sim PTX: Warning %f13 was declared previous at backprop-rodinia-3.1.sm_60.ptx:27 skipping new declaration
GPGPU-Sim PTX: Warning %f14 was declared previous at backprop-rodinia-3.1.sm_60.ptx:27 skipping new declaration
GPGPU-Sim PTX: Warning %f15 was declared previous at backprop-rodinia-3.1.sm_60.ptx:27 skipping new declaration
GPGPU-Sim PTX: Warning %f16 was declared previous at backprop-rodinia-3.1.sm_60.ptx:27 skipping new declaration
GPGPU-Sim PTX: Warning %f17 was declared previous at backprop-rodinia-3.1.sm_60.ptx:27 skipping new declaration
GPGPU-Sim PTX: Warning %f18 was declared previous at backprop-rodinia-3.1.sm_60.ptx:27 skipping new declaration
GPGPU-Sim PTX: Warning %f19 was declared previous at backprop-rodinia-3.1.sm_60.ptx:27 skipping new declaration
GPGPU-Sim PTX: Warning %f20 was declared previous at backprop-rodinia-3.1.sm_60.ptx:27 skipping new declaration
GPGPU-Sim PTX: Warning %r0 was declared previous at backprop-rodinia-3.1.sm_60.ptx:28 skipping new declaration
GPGPU-Sim PTX: Warning %r1 was declared previous at backprop-rodinia-3.1.sm_60.ptx:28 skipping new declaration
GPGPU-Sim PTX: Warning %r2 was declared previous at backprop-rodinia-3.1.sm_60.ptx:28 skipping new declaration
GPGPU-Sim PTX: Warning %r3 was declared previous at backprop-rodinia-3.1.sm_60.ptx:28 skipping new declaration
GPGPU-Sim PTX: Warning %r4 was declared previous at backprop-rodinia-3.1.sm_60.ptx:28 skipping new declaration
GPGPU-Sim PTX: Warning %r5 was declared previous at backprop-rodinia-3.1.sm_60.ptx:28 skipping new declaration
GPGPU-Sim PTX: Warning %r6 was declared previous at backprop-rodinia-3.1.sm_60.ptx:28 skipping new declaration
GPGPU-Sim PTX: Warning %r7 was declared previous at backprop-rodinia-3.1.sm_60.ptx:28 skipping new declaration
GPGPU-Sim PTX: Warning %r8 was declared previous at backprop-rodinia-3.1.sm_60.ptx:28 skipping new declaration
GPGPU-Sim PTX: Warning %r9 was declared previous at backprop-rodinia-3.1.sm_60.ptx:28 skipping new declaration
GPGPU-Sim PTX: Warning %r10 was declared previous at backprop-rodinia-3.1.sm_60.ptx:28 skipping new declaration
GPGPU-Sim PTX: Warning %r11 was declared previous at backprop-rodinia-3.1.sm_60.ptx:28 skipping new declaration
GPGPU-Sim PTX: Warning %r12 was declared previous at backprop-rodinia-3.1.sm_60.ptx:28 skipping new declaration
GPGPU-Sim PTX: Warning %r13 was declared previous at backprop-rodinia-3.1.sm_60.ptx:28 skipping new declaration
GPGPU-Sim PTX: Warning %r14 was declared previous at backprop-rodinia-3.1.sm_60.ptx:28 skipping new declaration
GPGPU-Sim PTX: Warning %r15 was declared previous at backprop-rodinia-3.1.sm_60.ptx:28 skipping new declaration
GPGPU-Sim PTX: Warning %r16 was declared previous at backprop-rodinia-3.1.sm_60.ptx:28 skipping new declaration
GPGPU-Sim PTX: Warning %r17 was declared previous at backprop-rodinia-3.1.sm_60.ptx:28 skipping new declaration
GPGPU-Sim PTX: Warning %r18 was declared previous at backprop-rodinia-3.1.sm_60.ptx:28 skipping new declaration
GPGPU-Sim PTX: Warning %r19 was declared previous at backprop-rodinia-3.1.sm_60.ptx:28 skipping new declaration
GPGPU-Sim PTX: Warning %r20 was declared previous at backprop-rodinia-3.1.sm_60.ptx:28 skipping new declaration
GPGPU-Sim PTX: Warning %r21 was declared previous at backprop-rodinia-3.1.sm_60.ptx:28 skipping new declaration
GPGPU-Sim PTX: Warning %r22 was declared previous at backprop-rodinia-3.1.sm_60.ptx:28 skipping new declaration
GPGPU-Sim PTX: Warning %r23 was declared previous at backprop-rodinia-3.1.sm_60.ptx:28 skipping new declaration
GPGPU-Sim PTX: Warning %r24 was declared previous at backprop-rodinia-3.1.sm_60.ptx:28 skipping new declaration
GPGPU-Sim PTX: Warning %r25 was declared previous at backprop-rodinia-3.1.sm_60.ptx:28 skipping new declaration
GPGPU-Sim PTX: Warning %r26 was declared previous at backprop-rodinia-3.1.sm_60.ptx:28 skipping new declaration
GPGPU-Sim PTX: Warning %r27 was declared previous at backprop-rodinia-3.1.sm_60.ptx:28 skipping new declaration
GPGPU-Sim PTX: Warning %r28 was declared previous at backprop-rodinia-3.1.sm_60.ptx:28 skipping new declaration
GPGPU-Sim PTX: Warning %r29 was declared previous at backprop-rodinia-3.1.sm_60.ptx:28 skipping new declaration
GPGPU-Sim PTX: Warning %r30 was declared previous at backprop-rodinia-3.1.sm_60.ptx:28 skipping new declaration
GPGPU-Sim PTX: Warning %r31 was declared previous at backprop-rodinia-3.1.sm_60.ptx:28 skipping new declaration
GPGPU-Sim PTX: Warning %r32 was declared previous at backprop-rodinia-3.1.sm_60.ptx:28 skipping new declaration
GPGPU-Sim PTX: Warning %r33 was declared previous at backprop-rodinia-3.1.sm_60.ptx:28 skipping new declaration
GPGPU-Sim PTX: Warning %r34 was declared previous at backprop-rodinia-3.1.sm_60.ptx:28 skipping new declaration
GPGPU-Sim PTX: Warning %r35 was declared previous at backprop-rodinia-3.1.sm_60.ptx:28 skipping new declaration
GPGPU-Sim PTX: Warning %r36 was declared previous at backprop-rodinia-3.1.sm_60.ptx:28 skipping new declaration
GPGPU-Sim PTX: Warning %rd0 was declared previous at backprop-rodinia-3.1.sm_60.ptx:29 skipping new declaration
GPGPU-Sim PTX: Warning %rd1 was declared previous at backprop-rodinia-3.1.sm_60.ptx:29 skipping new declaration
GPGPU-Sim PTX: Warning %rd2 was declared previous at backprop-rodinia-3.1.sm_60.ptx:29 skipping new declaration
GPGPU-Sim PTX: Warning %rd3 was declared previous at backprop-rodinia-3.1.sm_60.ptx:29 skipping new declaration
GPGPU-Sim PTX: Warning %rd4 was declared previous at backprop-rodinia-3.1.sm_60.ptx:29 skipping new declaration
GPGPU-Sim PTX: Warning %rd5 was declared previous at backprop-rodinia-3.1.sm_60.ptx:29 skipping new declaration
GPGPU-Sim PTX: Warning %rd6 was declared previous at backprop-rodinia-3.1.sm_60.ptx:29 skipping new declaration
GPGPU-Sim PTX: Warning %rd7 was declared previous at backprop-rodinia-3.1.sm_60.ptx:29 skipping new declaration
GPGPU-Sim PTX: Warning %rd8 was declared previous at backprop-rodinia-3.1.sm_60.ptx:29 skipping new declaration
GPGPU-Sim PTX: Warning %rd9 was declared previous at backprop-rodinia-3.1.sm_60.ptx:29 skipping new declaration
GPGPU-Sim PTX: Warning %rd10 was declared previous at backprop-rodinia-3.1.sm_60.ptx:29 skipping new declaration
GPGPU-Sim PTX: Warning %rd11 was declared previous at backprop-rodinia-3.1.sm_60.ptx:29 skipping new declaration
GPGPU-Sim PTX: Warning %rd12 was declared previous at backprop-rodinia-3.1.sm_60.ptx:29 skipping new declaration
GPGPU-Sim PTX: Warning _ZZ22bpnn_layerforward_CUDAPfS_S_S_iiE10input_node was declared previous at backprop-rodinia-3.1.sm_60.ptx:31 skipping new declaration
GPGPU-Sim PTX: Warning _ZZ22bpnn_layerforward_CUDAPfS_S_S_iiE13weight_matrix was declared previous at backprop-rodinia-3.1.sm_60.ptx:33 skipping new declaration
GPGPU-Sim PTX: instruction assembly for function '_Z22bpnn_layerforward_CUDAPfS_S_S_ii'...   done.
GPGPU-Sim PTX: Warning %p0 was declared previous at backprop-rodinia-3.1.sm_60.ptx:145 skipping new declaration
GPGPU-Sim PTX: Warning %p1 was declared previous at backprop-rodinia-3.1.sm_60.ptx:145 skipping new declaration
GPGPU-Sim PTX: Warning %f0 was declared previous at backprop-rodinia-3.1.sm_60.ptx:146 skipping new declaration
GPGPU-Sim PTX: Warning %f1 was declared previous at backprop-rodinia-3.1.sm_60.ptx:146 skipping new declaration
GPGPU-Sim PTX: Warning %f2 was declared previous at backprop-rodinia-3.1.sm_60.ptx:146 skipping new declaration
GPGPU-Sim PTX: Warning %f3 was declared previous at backprop-rodinia-3.1.sm_60.ptx:146 skipping new declaration
GPGPU-Sim PTX: Warning %f4 was declared previous at backprop-rodinia-3.1.sm_60.ptx:146 skipping new declaration
GPGPU-Sim PTX: Warning %f5 was declared previous at backprop-rodinia-3.1.sm_60.ptx:146 skipping new declaration
GPGPU-Sim PTX: Warning %f6 was declared previous at backprop-rodinia-3.1.sm_60.ptx:146 skipping new declaration
GPGPU-Sim PTX: Warning %f7 was declared previous at backprop-rodinia-3.1.sm_60.ptx:146 skipping new declaration
GPGPU-Sim PTX: Warning %f8 was declared previous at backprop-rodinia-3.1.sm_60.ptx:146 skipping new declaration
GPGPU-Sim PTX: Warning %f9 was declared previous at backprop-rodinia-3.1.sm_60.ptx:146 skipping new declaration
GPGPU-Sim PTX: Warning %f10 was declared previous at backprop-rodinia-3.1.sm_60.ptx:146 skipping new declaration
GPGPU-Sim PTX: Warning %f11 was declared previous at backprop-rodinia-3.1.sm_60.ptx:146 skipping new declaration
GPGPU-Sim PTX: Warning %f12 was declared previous at backprop-rodinia-3.1.sm_60.ptx:146 skipping new declaration
GPGPU-Sim PTX: Warning %f13 was declared previous at backprop-rodinia-3.1.sm_60.ptx:146 skipping new declaration
GPGPU-Sim PTX: Warning %f14 was declared previous at backprop-rodinia-3.1.sm_60.ptx:146 skipping new declaration
GPGPU-Sim PTX: Warning %f15 was declared previous at backprop-rodinia-3.1.sm_60.ptx:146 skipping new declaration
GPGPU-Sim PTX: Warning %f16 was declared previous at backprop-rodinia-3.1.sm_60.ptx:146 skipping new declaration
GPGPU-Sim PTX: Warning %r0 was declared previous at backprop-rodinia-3.1.sm_60.ptx:147 skipping new declaration
GPGPU-Sim PTX: Warning %r1 was declared previous at backprop-rodinia-3.1.sm_60.ptx:147 skipping new declaration
GPGPU-Sim PTX: Warning %r2 was declared previous at backprop-rodinia-3.1.sm_60.ptx:147 skipping new declaration
GPGPU-Sim PTX: Warning %r3 was declared previous at backprop-rodinia-3.1.sm_60.ptx:147 skipping new declaration
GPGPU-Sim PTX: Warning %r4 was declared previous at backprop-rodinia-3.1.sm_60.ptx:147 skipping new declaration
GPGPU-Sim PTX: Warning %r5 was declared previous at backprop-rodinia-3.1.sm_60.ptx:147 skipping new declaration
GPGPU-Sim PTX: Warning %r6 was declared previous at backprop-rodinia-3.1.sm_60.ptx:147 skipping new declaration
GPGPU-Sim PTX: Warning %r7 was declared previous at backprop-rodinia-3.1.sm_60.ptx:147 skipping new declaration
GPGPU-Sim PTX: Warning %r8 was declared previous at backprop-rodinia-3.1.sm_60.ptx:147 skipping new declaration
GPGPU-Sim PTX: Warning %r9 was declared previous at backprop-rodinia-3.1.sm_60.ptx:147 skipping new declaration
GPGPU-Sim PTX: Warning %r10 was declared previous at backprop-rodinia-3.1.sm_60.ptx:147 skipping new declaration
GPGPU-Sim PTX: Warning %r11 was declared previous at backprop-rodinia-3.1.sm_60.ptx:147 skipping new declaration
GPGPU-Sim PTX: Warning %fd0 was declared previous at backprop-rodinia-3.1.sm_60.ptx:148 skipping new declaration
GPGPU-Sim PTX: Warning %fd1 was declared previous at backprop-rodinia-3.1.sm_60.ptx:148 skipping new declaration
GPGPU-Sim PTX: Warning %fd2 was declared previous at backprop-rodinia-3.1.sm_60.ptx:148 skipping new declaration
GPGPU-Sim PTX: Warning %fd3 was declared previous at backprop-rodinia-3.1.sm_60.ptx:148 skipping new declaration
GPGPU-Sim PTX: Warning %fd4 was declared previous at backprop-rodinia-3.1.sm_60.ptx:148 skipping new declaration
GPGPU-Sim PTX: Warning %fd5 was declared previous at backprop-rodinia-3.1.sm_60.ptx:148 skipping new declaration
GPGPU-Sim PTX: Warning %fd6 was declared previous at backprop-rodinia-3.1.sm_60.ptx:148 skipping new declaration
GPGPU-Sim PTX: Warning %fd7 was declared previous at backprop-rodinia-3.1.sm_60.ptx:148 skipping new declaration
[...]
Row_Buffer_Locality_write = 0.299468
Bank_Level_Parallism = 1.634682
Bank_Level_Parallism_Col = 1.427125
Bank_Level_Parallism_Ready = 1.057645
write_to_read_ratio_blp_rw_average = 0.424720
GrpLevelPara = 1.328180 

BW Util details:
bwutil = 0.107068 
total_CMD = 1052568 
util_bw = 112696 
Wasted_Col = 161397 
Wasted_Row = 53268 
Idle = 725207 

BW Util Bottlenecks: 
RCDc_limit = 52142 
RCDWRc_limit = 24653 
WTRc_limit = 36891 
RTWc_limit = 58673 
CCDLc_limit = 70246 
rwq = 0 
CCDLc_limit_alone = 63189 
WTRc_limit_alone = 34109 
RTWc_limit_alone = 54398 

Commands details: 
total_CMD = 1052568 
n_nop = 981718 
Read = 36032 
Write = 0 
L2_Alloc = 0 
L2_WB = 20316 
n_act = 7355 
n_pre = 7339 
n_ref = 0 
n_req = 41111 
total_req = 56348 

Dual Bus Interface Util: 
issued_total_row = 14694 
issued_total_col = 56348 
Row_Bus_Util =  0.013960 
CoL_Bus_Util = 0.053534 
Either_Row_CoL_Bus_Util = 0.067312 
Issued_on_Two_Bus_Simul_Util = 0.000182 
issued_two_Eff = 0.002710 
queue_avg = 0.542914 


dram_util_bins: 0 0 0 0 0 0 0 0 0 0
dram_eff_bins: 0 0 0 0 0 0 0 0 0 0
mrqq: max=34 avg=0.542914
Memory Partition 7: 
Cache L2_bank_014:
MSHR contents

Cache L2_bank_015:
MSHR contents

In Dram Latency Queue (total = 0): 
DRAM[7]: 16 bks, busW=4 BL=8 CL=16, tRRD=8 tCCD=2, tRCD=16 tRAS=37 tRP=16 tRC=52
n_cmd=1052568 n_nop=983718 n_act=7086 n_pre=7070 n_ref_event=0 n_req=40206 n_rd=35315 n_rd_L2_A=0 n_write=0 n_wr_bk=19564 bw_util=0.1043
n_activity=426343 dram_eff=0.2574
bk0: 2080a 1024910i bk1: 2080a 1026417i bk2: 2224a 1024535i bk3: 1996a 1025913i bk4: 2240a 1021654i bk5: 2000a 1026326i bk6: 2244a 1022666i bk7: 2296a 1022778i bk8: 2244a 1024216i bk9: 2016a 1025340i bk10: 2359a 1022939i bk11: 2132a 1024817i bk12: 2492a 1020127i bk13: 2248a 1022534i bk14: 2392a 1022174i bk15: 2272a 1021844i 

------------------------------------------------------------------------

Row_Buffer_Locality = 0.823957
Row_Buffer_Locality_read = 0.894464
Row_Buffer_Locality_write = 0.314864
Bank_Level_Parallism = 1.612219
Bank_Level_Parallism_Col = 1.409121
Bank_Level_Parallism_Ready = 1.054458
write_to_read_ratio_blp_rw_average = 0.427148
GrpLevelPara = 1.317163 

BW Util details:
bwutil = 0.104276 
total_CMD = 1052568 
util_bw = 109758 
Wasted_Col = 156216 
Wasted_Row = 52094 
Idle = 734500 

BW Util Bottlenecks: 
RCDc_limit = 51821 
RCDWRc_limit = 23437 
WTRc_limit = 36402 
RTWc_limit = 55879 
CCDLc_limit = 66111 
rwq = 0 
CCDLc_limit_alone = 59318 
WTRc_limit_alone = 33712 
RTWc_limit_alone = 51776 

Commands details: 
total_CMD = 1052568 
n_nop = 983718 
Read = 35315 
Write = 0 
L2_Alloc = 0 
L2_WB = 19564 
n_act = 7086 
n_pre = 7070 
n_ref = 0 
n_req = 40206 
total_req = 54879 

Dual Bus Interface Util: 
issued_total_row = 14156 
issued_total_col = 54879 
Row_Bus_Util =  0.013449 
CoL_Bus_Util = 0.052138 
Either_Row_CoL_Bus_Util = 0.065411 
Issued_on_Two_Bus_Simul_Util = 0.000176 
issued_two_Eff = 0.002687 
queue_avg = 0.496848 


dram_util_bins: 0 0 0 0 0 0 0 0 0 0
dram_eff_bins: 0 0 0 0 0 0 0 0 0 0
mrqq: max=35 avg=0.496848
Memory Partition 8: 
Cache L2_bank_016:
MSHR contents

Cache L2_bank_017:
MSHR contents

In Dram Latency Queue (total = 0): 
DRAM[8]: 16 bks, busW=4 BL=8 CL=16, tRRD=8 tCCD=2, tRCD=16 tRAS=37 tRP=16 tRC=52
n_cmd=1052568 n_nop=983677 n_act=7179 n_pre=7163 n_ref_event=0 n_req=40132 n_rd=35260 n_rd_L2_A=0 n_write=0 n_wr_bk=19488 bw_util=0.104
n_activity=423259 dram_eff=0.2587
bk0: 2360a 1020397i bk1: 2128a 1023138i bk2: 2104a 1023141i bk3: 2348a 1020606i bk4: 2276a 1022242i bk5: 2072a 1025563i bk6: 1992a 1024877i bk7: 2112a 1024125i bk8: 2024a 1025287i bk9: 2376a 1023007i bk10: 2296a 1023275i bk11: 2232a 1022462i bk12: 2180a 1024041i bk13: 2228a 1023830i bk14: 2140a 1024096i bk15: 2392a 1021483i 

------------------------------------------------------------------------

Row_Buffer_Locality = 0.821290
Row_Buffer_Locality_read = 0.893959
Row_Buffer_Locality_write = 0.295361
Bank_Level_Parallism = 1.626733
Bank_Level_Parallism_Col = 1.422000
Bank_Level_Parallism_Ready = 1.059347
write_to_read_ratio_blp_rw_average = 0.419856
GrpLevelPara = 1.322308 

BW Util details:
bwutil = 0.104027 
total_CMD = 1052568 
util_bw = 109496 
Wasted_Col = 156985 
Wasted_Row = 52802 
Idle = 733285 

BW Util Bottlenecks: 
RCDc_limit = 51587 
RCDWRc_limit = 23953 
WTRc_limit = 36319 
RTWc_limit = 55780 
CCDLc_limit = 68500 
rwq = 0 
CCDLc_limit_alone = 61637 
WTRc_limit_alone = 33703 
RTWc_limit_alone = 51533 

Commands details: 
total_CMD = 1052568 
n_nop = 983677 
Read = 35260 
Write = 0 
L2_Alloc = 0 
L2_WB = 19488 
n_act = 7179 
n_pre = 7163 
n_ref = 0 
n_req = 40132 
total_req = 54748 

Dual Bus Interface Util: 
issued_total_row = 14342 
issued_total_col = 54748 
Row_Bus_Util =  0.013626 
CoL_Bus_Util = 0.052014 
Either_Row_CoL_Bus_Util = 0.065450 
Issued_on_Two_Bus_Simul_Util = 0.000189 
issued_two_Eff = 0.002889 
queue_avg = 0.513740 


dram_util_bins: 0 0 0 0 0 0 0 0 0 0
dram_eff_bins: 0 0 0 0 0 0 0 0 0 0
mrqq: max=30 avg=0.51374
Memory Partition 9: 
Cache L2_bank_018:
MSHR contents

Cache L2_bank_019:
MSHR contents

In Dram Latency Queue (total = 0): 
DRAM[9]: 16 bks, busW=4 BL=8 CL=16, tRRD=8 tCCD=2, tRCD=16 tRAS=37 tRP=16 tRC=52
n_cmd=1052568 n_nop=983099 n_act=7099 n_pre=7083 n_ref_event=0 n_req=40734 n_rd=35814 n_rd_L2_A=0 n_write=0 n_wr_bk=19680 bw_util=0.1054
n_activity=427240 dram_eff=0.2598
bk0: 2326a 1022800i bk1: 2132a 1024467i bk2: 2252a 1022864i bk3: 2332a 1021480i bk4: 2324a 1023411i bk5: 2184a 1024427i bk6: 2356a 1021659i bk7: 2040a 1025303i bk8: 2016a 1026576i bk9: 2092a 1024827i bk10: 2232a 1023109i bk11: 2264a 1022297i bk12: 2280a 1022859i bk13: 2200a 1023924i bk14: 2432a 1022407i bk15: 2352a 1021028i 

------------------------------------------------------------------------

Row_Buffer_Locality = 0.825919
Row_Buffer_Locality_read = 0.897554
Row_Buffer_Locality_write = 0.304472
Bank_Level_Parallism = 1.621921
Bank_Level_Parallism_Col = 1.421011
Bank_Level_Parallism_Ready = 1.057510
write_to_read_ratio_blp_rw_average = 0.419394
GrpLevelPara = 1.325972 

BW Util details:
bwutil = 0.105445 
total_CMD = 1052568 
util_bw = 110988 
Wasted_Col = 156748 
Wasted_Row = 52046 
Idle = 732786 

BW Util Bottlenecks: 
RCDc_limit = 50754 
RCDWRc_limit = 23981 
WTRc_limit = 37037 
RTWc_limit = 55589 
CCDLc_limit = 67969 
rwq = 0 
CCDLc_limit_alone = 61441 
WTRc_limit_alone = 34565 
RTWc_limit_alone = 51533 

Commands details: 
total_CMD = 1052568 
n_nop = 983099 
Read = 35814 
Write = 0 
L2_Alloc = 0 
L2_WB = 19680 
n_act = 7099 
n_pre = 7083 
n_ref = 0 
n_req = 40734 
total_req = 55494 

Dual Bus Interface Util: 
issued_total_row = 14182 
issued_total_col = 55494 
Row_Bus_Util =  0.013474 
CoL_Bus_Util = 0.052722 
Either_Row_CoL_Bus_Util = 0.066000 
Issued_on_Two_Bus_Simul_Util = 0.000197 
issued_two_Eff = 0.002980 
queue_avg = 0.515043 


dram_util_bins: 0 0 0 0 0 0 0 0 0 0
dram_eff_bins: 0 0 0 0 0 0 0 0 0 0
mrqq: max=30 avg=0.515043
Memory Partition 10: 
Cache L2_bank_020:
MSHR contents

Cache L2_bank_021:
MSHR contents

In Dram Latency Queue (total = 0): 
DRAM[10]: 16 bks, busW=4 BL=8 CL=16, tRRD=8 tCCD=2, tRCD=16 tRAS=37 tRP=16 tRC=52
n_cmd=1052568 n_nop=983045 n_act=7170 n_pre=7154 n_ref_event=0 n_req=40512 n_rd=35552 n_rd_L2_A=0 n_write=0 n_wr_bk=19840 bw_util=0.1053
n_activity=425326 dram_eff=0.2605
bk0: 2220a 1022655i bk1: 2152a 1023448i bk2: 2164a 1023121i bk3: 2176a 1024843i bk4: 2116a 1023452i bk5: 2332a 1022022i bk6: 2460a 1018160i bk7: 2208a 1020974i bk8: 2248a 1022655i bk9: 2104a 1025508i bk10: 2108a 1025062i bk11: 2240a 1024500i bk12: 2316a 1022877i bk13: 2300a 1022837i bk14: 2252a 1022493i bk15: 2156a 1022139i 

------------------------------------------------------------------------

Row_Buffer_Locality = 0.823213
Row_Buffer_Locality_read = 0.897305
Row_Buffer_Locality_write = 0.292137
Bank_Level_Parallism = 1.632138
Bank_Level_Parallism_Col = 1.425074
Bank_Level_Parallism_Ready = 1.058536
write_to_read_ratio_blp_rw_average = 0.435050
GrpLevelPara = 1.324430 

BW Util details:
bwutil = 0.105251 
total_CMD = 1052568 
util_bw = 110784 
Wasted_Col = 158860 
Wasted_Row = 51636 
Idle = 731288 

BW Util Bottlenecks: 
RCDc_limit = 50632 
RCDWRc_limit = 24381 
WTRc_limit = 35012 
RTWc_limit = 59961 
CCDLc_limit = 69426 
rwq = 0 
CCDLc_limit_alone = 62066 
WTRc_limit_alone = 32597 
RTWc_limit_alone = 55016 

Commands details: 
total_CMD = 1052568 
n_nop = 983045 
Read = 35552 
Write = 0 
L2_Alloc = 0 
L2_WB = 19840 
n_act = 7170 
n_pre = 7154 
n_ref = 0 
n_req = 40512 
total_req = 55392 

Dual Bus Interface Util: 
issued_total_row = 14324 
issued_total_col = 55392 
Row_Bus_Util =  0.013609 
CoL_Bus_Util = 0.052626 
Either_Row_CoL_Bus_Util = 0.066051 
Issued_on_Two_Bus_Simul_Util = 0.000183 
issued_two_Eff = 0.002776 
queue_avg = 0.501476 


dram_util_bins: 0 0 0 0 0 0 0 0 0 0
dram_eff_bins: 0 0 0 0 0 0 0 0 0 0
mrqq: max=28 avg=0.501476
Memory Partition 11: 
Cache L2_bank_022:
MSHR contents

Cache L2_bank_023:
MSHR contents

In Dram Latency Queue (total = 0): 
DRAM[11]: 16 bks, busW=4 BL=8 CL=16, tRRD=8 tCCD=2, tRCD=16 tRAS=37 tRP=16 tRC=52
n_cmd=1052568 n_nop=979909 n_act=7377 n_pre=7361 n_ref_event=0 n_req=42495 n_rd=37280 n_rd_L2_A=0 n_write=0 n_wr_bk=20858 bw_util=0.1105
n_activity=440044 dram_eff=0.2642
bk0: 2368a 1022368i bk1: 2436a 1019994i bk2: 2136a 1025890i bk3: 2260a 1023650i bk4: 2284a 1021809i bk5: 2156a 1022724i bk6: 2020a 1026579i bk7: 2332a 1021533i bk8: 2388a 1022883i bk9: 2304a 1021041i bk10: 2400a 1019922i bk11: 2484a 1020702i bk12: 2296a 1021867i bk13: 2584a 1017840i bk14: 2396a 1019990i bk15: 2436a 1020616i 

------------------------------------------------------------------------

Row_Buffer_Locality = 0.826591
Row_Buffer_Locality_read = 0.899142
Row_Buffer_Locality_write = 0.307958
Bank_Level_Parallism = 1.640943
Bank_Level_Parallism_Col = 1.432989
Bank_Level_Parallism_Ready = 1.057651
write_to_read_ratio_blp_rw_average = 0.425379
GrpLevelPara = 1.332574 

BW Util details:
bwutil = 0.110469 
total_CMD = 1052568 
util_bw = 116276 
Wasted_Col = 163183 
Wasted_Row = 52561 
Idle = 720548 

BW Util Bottlenecks: 
RCDc_limit = 51605 
RCDWRc_limit = 24768 
WTRc_limit = 38221 
RTWc_limit = 60033 
CCDLc_limit = 71557 
rwq = 0 
CCDLc_limit_alone = 64229 
WTRc_limit_alone = 35324 
RTWc_limit_alone = 55602 

Commands details: 
total_CMD = 1052568 
n_nop = 979909 
Read = 37280 
Write = 0 
L2_Alloc = 0 
L2_WB = 20858 
n_act = 7377 
n_pre = 7361 
n_ref = 0 
n_req = 42495 
total_req = 58138 

Dual Bus Interface Util: 
issued_total_row = 14738 
issued_total_col = 58138 
Row_Bus_Util =  0.014002 
CoL_Bus_Util = 0.055234 
Either_Row_CoL_Bus_Util = 0.069030 
Issued_on_Two_Bus_Simul_Util = 0.000206 
issued_two_Eff = 0.002987 
queue_avg = 0.539916 


dram_util_bins: 0 0 0 0 0 0 0 0 0 0
dram_eff_bins: 0 0 0 0 0 0 0 0 0 0
mrqq: max=30 avg=0.539916

========= L2 cache stats =========
L2_cache_bank[0]: Access = 53972, Miss = 18996, Miss_rate = 0.352, Pending_hits = 5596, Reservation_fails = 0
L2_cache_bank[1]: Access = 54850, Miss = 19604, Miss_rate = 0.357, Pending_hits = 5298, Reservation_fails = 0
L2_cache_bank[2]: Access = 52460, Miss = 18468, Miss_rate = 0.352, Pending_hits = 4895, Reservation_fails = 0
L2_cache_bank[3]: Access = 54708, Miss = 19420, Miss_rate = 0.355, Pending_hits = 5353, Reservation_fails = 0
L2_cache_bank[4]: Access = 52982, Miss = 19040, Miss_rate = 0.359, Pending_hits = 4934, Reservation_fails = 0
L2_cache_bank[5]: Access = 53793, Miss = 19291, Miss_rate = 0.359, Pending_hits = 5262, Reservation_fails = 0
L2_cache_bank[6]: Access = 53418, Miss = 18504, Miss_rate = 0.346, Pending_hits = 5219, Reservation_fails = 0
L2_cache_bank[7]: Access = 54754, Miss = 19512, Miss_rate = 0.356, Pending_hits = 5278, Reservation_fails = 0
L2_cache_bank[8]: Access = 53271, Miss = 18708, Miss_rate = 0.351, Pending_hits = 5197, Reservation_fails = 0
L2_cache_bank[9]: Access = 55325, Miss = 19448, Miss_rate = 0.352, Pending_hits = 5599, Reservation_fails = 0
L2_cache_bank[10]: Access = 54698, Miss = 19296, Miss_rate = 0.353, Pending_hits = 5414, Reservation_fails = 0
L2_cache_bank[11]: Access = 54738, Miss = 19500, Miss_rate = 0.356, Pending_hits = 5585, Reservation_fails = 0
L2_cache_bank[12]: Access = 54047, Miss = 19200, Miss_rate = 0.355, Pending_hits = 4968, Reservation_fails = 0
L2_cache_bank[13]: Access = 54863, Miss = 19952, Miss_rate = 0.364, Pending_hits = 5070, Reservation_fails = 0
L2_cache_bank[14]: Access = 53361, Miss = 18760, Miss_rate = 0.352, Pending_hits = 5148, Reservation_fails = 0
L2_cache_bank[15]: Access = 251024, Miss = 19419, Miss_rate = 0.077, Pending_hits = 5279, Reservation_fails = 0
L2_cache_bank[16]: Access = 54035, Miss = 18840, Miss_rate = 0.349, Pending_hits = 5223, Reservation_fails = 0
L2_cache_bank[17]: Access = 53574, Miss = 19012, Miss_rate = 0.355, Pending_hits = 5082, Reservation_fails = 0
L2_cache_bank[18]: Access = 54686, Miss = 19354, Miss_rate = 0.354, Pending_hits = 5385, Reservation_fails = 0
L2_cache_bank[19]: Access = 53403, Miss = 18876, Miss_rate = 0.353, Pending_hits = 5255, Reservation_fails = 0
L2_cache_bank[20]: Access = 54165, Miss = 19116, Miss_rate = 0.353, Pending_hits = 5058, Reservation_fails = 0
L2_cache_bank[21]: Access = 54504, Miss = 19076, Miss_rate = 0.350, Pending_hits = 5349, Reservation_fails = 0
L2_cache_bank[22]: Access = 55699, Miss = 19752, Miss_rate = 0.355, Pending_hits = 5778, Reservation_fails = 0
L2_cache_bank[23]: Access = 56827, Miss = 20184, Miss_rate = 0.355, Pending_hits = 5735, Reservation_fails = 0
L2_total_cache_accesses = 1499157
L2_total_cache_misses = 461328
L2_total_cache_miss_rate = 0.3077
L2_total_cache_pending_hits = 126960
L2_total_cache_reservation_fails = 0
L2_total_cache_breakdown:
	L2_cache_stats_breakdown[GLOBAL_ACC_R][HIT] = 419343
	L2_cache_stats_breakdown[GLOBAL_ACC_R][HIT_RESERVED] = 126960
	L2_cache_stats_breakdown[GLOBAL_ACC_R][MISS] = 107143
	L2_cache_stats_breakdown[GLOBAL_ACC_R][RESERVATION_FAIL] = 0
	L2_cache_stats_breakdown[GLOBAL_ACC_R][SECTOR_MISS] = 321417
	L2_cache_stats_breakdown[GLOBAL_ACC_R][MSHR_HIT] = 126960
	L2_cache_stats_breakdown[LOCAL_ACC_R][HIT] = 0
	L2_cache_stats_breakdown[LOCAL_ACC_R][HIT_RESERVED] = 0
	L2_cache_stats_breakdown[LOCAL_ACC_R][MISS] = 0
	L2_cache_stats_breakdown[LOCAL_ACC_R][RESERVATION_FAIL] = 0
	L2_cache_stats_breakdown[LOCAL_ACC_R][SECTOR_MISS] = 0
	L2_cache_stats_breakdown[LOCAL_ACC_R][MSHR_HIT] = 0
	L2_cache_stats_breakdown[CONST_ACC_R][HIT] = 0
	L2_cache_stats_breakdown[CONST_ACC_R][HIT_RESERVED] = 0
	L2_cache_stats_breakdown[CONST_ACC_R][MISS] = 0
	L2_cache_stats_breakdown[CONST_ACC_R][RESERVATION_FAIL] = 0
	L2_cache_stats_breakdown[CONST_ACC_R][SECTOR_MISS] = 0
	L2_cache_stats_breakdown[CONST_ACC_R][MSHR_HIT] = 0
	L2_cache_stats_breakdown[TEXTURE_ACC_R][HIT] = 0
	L2_cache_stats_breakdown[TEXTURE_ACC_R][HIT_RESERVED] = 0
	L2_cache_stats_breakdown[TEXTURE_ACC_R][MISS] = 0
	L2_cache_stats_breakdown[TEXTURE_ACC_R][RESERVATION_FAIL] = 0
	L2_cache_stats_breakdown[TEXTURE_ACC_R][SECTOR_MISS] = 0
	L2_cache_stats_breakdown[TEXTURE_ACC_R][MSHR_HIT] = 0
	L2_cache_stats_breakdown[GLOBAL_ACC_W][HIT] = 491526
	L2_cache_stats_breakdown[GLOBAL_ACC_W][HIT_RESERVED] = 0
	L2_cache_stats_breakdown[GLOBAL_ACC_W][MISS] = 2048
	L2_cache_stats_breakdown[GLOBAL_ACC_W][RESERVATION_FAIL] = 0
	L2_cache_stats_breakdown[GLOBAL_ACC_W][SECTOR_MISS] = 30720
	L2_cache_stats_breakdown[GLOBAL_ACC_W][MSHR_HIT] = 0
	L2_cache_stats_breakdown[LOCAL_ACC_W][HIT] = 0
	L2_cache_stats_breakdown[LOCAL_ACC_W][HIT_RESERVED] = 0
	L2_cache_stats_breakdown[LOCAL_ACC_W][MISS] = 0
	L2_cache_stats_breakdown[LOCAL_ACC_W][RESERVATION_FAIL] = 0
	L2_cache_stats_breakdown[LOCAL_ACC_W][SECTOR_MISS] = 0
	L2_cache_stats_breakdown[LOCAL_ACC_W][MSHR_HIT] = 0
	L2_cache_stats_breakdown[L1_WRBK_ACC][HIT] = 0
	L2_cache_stats_breakdown[L1_WRBK_ACC][HIT_RESERVED] = 0
	L2_cache_stats_breakdown[L1_WRBK_ACC][MISS] = 0
	L2_cache_stats_breakdown[L1_WRBK_ACC][RESERVATION_FAIL] = 0
	L2_cache_stats_breakdown[L1_WRBK_ACC][SECTOR_MISS] = 0
	L2_cache_stats_breakdown[L1_WRBK_ACC][MSHR_HIT] = 0
	L2_cache_stats_breakdown[L2_WRBK_ACC][HIT] = 0
	L2_cache_stats_breakdown[L2_WRBK_ACC][HIT_RESERVED] = 0
	L2_cache_stats_breakdown[L2_WRBK_ACC][MISS] = 0
	L2_cache_stats_breakdown[L2_WRBK_ACC][RESERVATION_FAIL] = 0
	L2_cache_stats_breakdown[L2_WRBK_ACC][SECTOR_MISS] = 0
	L2_cache_stats_breakdown[L2_WRBK_ACC][MSHR_HIT] = 0
	L2_cache_stats_breakdown[INST_ACC_R][HIT] = 0
	L2_cache_stats_breakdown[INST_ACC_R][HIT_RESERVED] = 0
	L2_cache_stats_breakdown[INST_ACC_R][MISS] = 0
	L2_cache_stats_breakdown[INST_ACC_R][RESERVATION_FAIL] = 0
	L2_cache_stats_breakdown[INST_ACC_R][SECTOR_MISS] = 0
	L2_cache_stats_breakdown[INST_ACC_R][MSHR_HIT] = 0
	L2_cache_stats_breakdown[L1_WR_ALLOC_R][HIT] = 0
	L2_cache_stats_breakdown[L1_WR_ALLOC_R][HIT_RESERVED] = 0
	L2_cache_stats_breakdown[L1_WR_ALLOC_R][MISS] = 0
	L2_cache_stats_breakdown[L1_WR_ALLOC_R][RESERVATION_FAIL] = 0
	L2_cache_stats_breakdown[L1_WR_ALLOC_R][SECTOR_MISS] = 0
	L2_cache_stats_breakdown[L1_WR_ALLOC_R][MSHR_HIT] = 0
	L2_cache_stats_breakdown[L2_WR_ALLOC_R][HIT] = 0
	L2_cache_stats_breakdown[L2_WR_ALLOC_R][HIT_RESERVED] = 0
	L2_cache_stats_breakdown[L2_WR_ALLOC_R][MISS] = 0
	L2_cache_stats_breakdown[L2_WR_ALLOC_R][RESERVATION_FAIL] = 0
	L2_cache_stats_breakdown[L2_WR_ALLOC_R][SECTOR_MISS] = 0
	L2_cache_stats_breakdown[L2_WR_ALLOC_R][MSHR_HIT] = 0
	L2_cache_stats_breakdown[GLOBAL_ACC_R][TOTAL_ACCESS] = 1101823
	L2_cache_stats_breakdown[GLOBAL_ACC_W][TOTAL_ACCESS] = 524294
L2_total_cache_reservation_fail_breakdown:
L2_cache_data_port_util = 0.064
L2_cache_fill_port_util = 0.030

icnt_total_pkts_mem_to_simt=1499157
icnt_total_pkts_simt_to_mem=1499157
LD_mem_lat_dist  0 0 0 0 0 0 0 0 0 0 0 0 0 0 0 0 0 0 0 0 0 0 0 0 0 0 0
ST_mem_lat_dist  0 0 0 0 0 0 0 0 0 0 0 0 0 0 0 0 0 0 0 0 0 0 0 0 0 0 0
----------------------------Interconnect-DETAILS--------------------------------
Class 0:
Packet latency average = 72.9048
	minimum = 5
	maximum = 850
Network latency average = 31.1718
	minimum = 5
	maximum = 514
Slowest packet = 803425
Flit latency average = 31.1718
	minimum = 5
	maximum = 514
Slowest flit = 803425
Fragmentation average = 0
	minimum = 0
	maximum = 0
Injected packet rate average = 0.116172
	minimum = 0 (at node 30)
	maximum = 0.644612 (at node 21)
Accepted packet rate average = 0.116172
	minimum = 0 (at node 30)
	maximum = 0.644612 (at node 21)
Injected flit rate average = 0.116172
	minimum = 0 (at node 30)
	maximum = 0.644612 (at node 21)
Accepted flit rate average= 0.116172
	minimum = 0 (at node 30)
	maximum = 0.644612 (at node 21)
Injected packet length average = 1
Accepted packet length average = 1
Total in-flight flits = 0 (0 measured)
====== Overall Traffic Statistics ======
====== Traffic class 0 ======
Packet latency average = 40.5089 (2 samples)
	minimum = 5 (2 samples)
	maximum = 485.5 (2 samples)
Network latency average = 19.6424 (2 samples)
	minimum = 5 (2 samples)
	maximum = 317.5 (2 samples)
Flit latency average = 19.6424 (2 samples)
	minimum = 5 (2 samples)
	maximum = 317.5 (2 samples)
Fragmentation average = 0 (2 samples)
	minimum = 0 (2 samples)
	maximum = 0 (2 samples)
Injected packet rate average = 0.0911936 (2 samples)
	minimum = 0 (2 samples)
	maximum = 0.466053 (2 samples)
Accepted packet rate average = 0.0911936 (2 samples)
	minimum = 0 (2 samples)
	maximum = 0.466053 (2 samples)
Injected flit rate average = 0.0911936 (2 samples)
	minimum = 0 (2 samples)
	maximum = 0.466053 (2 samples)
Accepted flit rate average = 0.0911936 (2 samples)
	minimum = 0 (2 samples)
	maximum = 0.466053 (2 samples)
Injected packet size average = 1 (2 samples)
Accepted packet size average = 1 (2 samples)
Hops average = 1 (2 samples)
----------------------------END-of-Interconnect-DETAILS-------------------------


gpgpu_simulation_time = 0 days, 0 hrs, 24 min, 31 sec (1471 sec)
gpgpu_simulation_rate = 109820 (inst/sec)
gpgpu_simulation_rate = 405 (cycle/sec)
gpgpu_silicon_slowdown = 3498765x
Training done
GPGPU-Sim: *** exit detected ***
