Skipping setup_environment - already set
doing: export -n PTX_SIM_USE_PTX_FILE
doing: export LD_LIBRARY_PATH=/home/htran197/accel-sim-framework/gpu-simulator/../accelwattch_runs/pascal_ptx_sim/gpgpu-sim-builds/gpgpu-sim_git-commit-971dd69e8a6c355c8cc4c8bd997db51376ff520a_modified_1.0:/home/htran197/accel-sim-framework/gpu-simulator/gpgpu-sim/lib/gcc-8.4.0/cuda-11000/debug:/home/htran197/accel-sim-framework/gpu-simulator/gpgpu-sim/lib/gcc-8.4.0/cuda-11000/release::/usr/lib/x86_64-linux-gnu/slurm-wlm/:/usr/lib/x86_64-linux-gnu/slurm-wlm/
doing: cd /home/htran197/accel-sim-framework/gpu-simulator/../accelwattch_runs/pascal_ptx_sim/sobolQRNG/NO_ARGS/TITANX-Accelwattch_PTX_SIM
doing: export OPENCL_CURRENT_TEST_PATH=/home/htran197/accel-sim-framework/gpu-simulator/../accelwattch_runs/pascal_ptx_sim/sobolQRNG/NO_ARGS/TITANX-Accelwattch_PTX_SIM
doing: export OPENCL_REMOTE_GPU_HOST=REPLACE_REMOTE_HOST
doing 
doing: export PATH=/home/htran197/accel-sim-framework/gpu-simulator/gpgpu-sim/bin:/usr/local/cuda-11.0//bin:/home/htran197/anaconda3/envs/python2/bin:/home/htran197/anaconda3/bin:/usr/local/cuda-11.0/bin:/usr/local/cuda/bin:/home/htran197/.vscode-server/bin/1ad8d514439d5077d2b0b7ee64d2ce82a9308e5a/bin/remote-cli:/home/htran197/anaconda3/condabin:/home/htran197/accel-sim-framework/gpu-simulator/gpgpu-sim/bin:/usr/local/cuda-11.0/bin:/home/htran197/anaconda3/bin:/usr/local/cuda-11.0/bin:/usr/local/cuda/bin:/usr/local/sbin:/usr/local/bin:/usr/sbin:/usr/bin:/sbin:/bin:/usr/games:/usr/local/games:/snap/bin:/usr/local/bin
doing export CUDA_LAUNCH_BLOCKING=1
doing:  /home/htran197/accel-sim-framework/gpu-simulator/../util/accelwattch/accelwattch_benchmarks/validation/sobolQRNG 


        *** GPGPU-Sim Simulator Version 4.2.0  [build gpgpu-sim_git-commit-971dd69e8a6c355c8cc4c8bd997db51376ff520a_modified_1.0] ***


GPGPU-Sim PTX: simulation mode 0 (can change with PTX_SIM_MODE_FUNC environment variable:
               1=functional simulation only, 0=detailed performance simulator)
GPGPU-Sim: Configuration options:

-save_embedded_ptx                      0 # saves ptx files embedded in binary as <n>.ptx
-keep                                   0 # keep intermediate files created by GPGPU-Sim when interfacing with external programs
-gpgpu_ptx_save_converted_ptxplus                    0 # Saved converted ptxplus to a file
-gpgpu_occupancy_sm_number                   62 # The SM number to pass to ptxas when getting register usage for computing GPU occupancy. This parameter is required in the config.
-ptx_opcode_latency_int      4,13,4,5,145,32 # Opcode latencies for integers <ADD,MAX,MUL,MAD,DIV,SHFL>Default 1,1,19,25,145,32
-ptx_opcode_latency_fp          4,13,4,4,39 # Opcode latencies for single precision floating points <ADD,MAX,MUL,MAD,DIV>Default 1,1,1,1,30
-ptx_opcode_latency_dp         8,19,8,8,330 # Opcode latencies for double precision floating points <ADD,MAX,MUL,MAD,DIV>Default 8,8,8,8,335
-ptx_opcode_latency_sfu                   20 # Opcode latencies for SFU instructionsDefault 8
-ptx_opcode_latency_tesnor                   64 # Opcode latencies for Tensor instructionsDefault 64
-ptx_opcode_initiation_int          1,1,1,1,4,4 # Opcode initiation intervals for integers <ADD,MAX,MUL,MAD,DIV,SHFL>Default 1,1,4,4,32,4
-ptx_opcode_initiation_fp            1,2,1,1,4 # Opcode initiation intervals for single precision floating points <ADD,MAX,MUL,MAD,DIV>Default 1,1,1,1,5
-ptx_opcode_initiation_dp          8,8,8,8,130 # Opcode initiation intervals for double precision floating points <ADD,MAX,MUL,MAD,DIV>Default 8,8,8,8,130
-ptx_opcode_initiation_sfu                    4 # Opcode initiation intervals for sfu instructionsDefault 8
-ptx_opcode_initiation_tensor                   64 # Opcode initiation intervals for tensor instructionsDefault 64
-cdp_latency         7200,8000,100,12000,1600 # CDP API latency <cudaStreamCreateWithFlags, cudaGetParameterBufferV2_init_perWarp, cudaGetParameterBufferV2_perKernel, cudaLaunchDeviceV2_init_perWarp, cudaLaunchDevicV2_perKernel>Default 7200,8000,100,12000,1600
-network_mode                           1 # Interconnection network mode
-inter_config_file   config_pascal_islip.icnt # Interconnection network config file
-icnt_in_buffer_limit                   64 # in_buffer_limit
-icnt_out_buffer_limit                   64 # out_buffer_limit
-icnt_subnets                           2 # subnets
-icnt_arbiter_algo                      1 # arbiter_algo
-icnt_verbose                           0 # inct_verbose
-icnt_grant_cycles                      1 # grant_cycles
-gpgpu_ptx_use_cuobjdump                    1 # Use cuobjdump to extract ptx and sass from binaries
-gpgpu_experimental_lib_support                    0 # Try to extract code from cuda libraries [Broken because of unknown cudaGetExportTable]
-checkpoint_option                      0 #  checkpointing flag (0 = no checkpoint)
-checkpoint_kernel                      1 #  checkpointing during execution of which kernel (1- 1st kernel)
-checkpoint_CTA                         0 #  checkpointing after # of CTA (< less than total CTA)
-resume_option                          0 #  resume flag (0 = no resume)
-resume_kernel                          0 #  Resume from which kernel (1= 1st kernel)
-resume_CTA                             0 #  resume from which CTA 
-checkpoint_CTA_t                       0 #  resume from which CTA 
-checkpoint_insn_Y                      0 #  resume from which CTA 
-gpgpu_ptx_convert_to_ptxplus                    0 # Convert SASS (native ISA) to ptxplus and run ptxplus
-gpgpu_ptx_force_max_capability                   61 # Force maximum compute capability
-gpgpu_ptx_inst_debug_to_file                    0 # Dump executed instructions' debug information to file
-gpgpu_ptx_inst_debug_file       inst_debug.txt # Executed instructions' debug output file
-gpgpu_ptx_inst_debug_thread_uid                    1 # Thread UID for executed instructions' debug output
-gpgpu_simd_model                       1 # 1 = post-dominator
-gpgpu_shader_core_pipeline              2048:32 # shader core pipeline config, i.e., {<nthread>:<warpsize>}
-gpgpu_tex_cache:l1  N:16:128:24,L:R:m:N:L,T:128:4,128:2 # per-shader L1 texture cache  (READ-ONLY) config  {<nsets>:<bsize>:<assoc>,<rep>:<wr>:<alloc>:<wr_alloc>,<mshr>:<N>:<merge>,<mq>:<rf>}
-gpgpu_const_cache:l1 N:128:64:2,L:R:f:N:L,S:2:64,4 # per-shader L1 constant memory cache  (READ-ONLY) config  {<nsets>:<bsize>:<assoc>,<rep>:<wr>:<alloc>:<wr_alloc>,<mshr>:<N>:<merge>,<mq>} 
-gpgpu_cache:il1     N:8:128:4,L:R:f:N:L,S:2:48,4 # shader L1 instruction cache config  {<nsets>:<bsize>:<assoc>,<rep>:<wr>:<alloc>:<wr_alloc>,<mshr>:<N>:<merge>,<mq>} 
-gpgpu_cache:dl1     S:4:128:96,L:L:s:N:L,A:256:8,16:0,32 # per-shader L1 data cache config  {<nsets>:<bsize>:<assoc>,<rep>:<wr>:<alloc>:<wr_alloc>,<mshr>:<N>:<merge>,<mq> | none}
-gpgpu_l1_banks                         2 # The number of L1 cache banks
-gpgpu_l1_banks_byte_interleaving                   32 # l1 banks byte interleaving granularity
-gpgpu_l1_banks_hashing_function                    0 # l1 banks hashing function
-gpgpu_l1_latency                      82 # L1 Hit Latency
-gpgpu_smem_latency                    24 # smem Latency
-gpgpu_cache:dl1PrefL1 S:4:128:96,L:L:s:N:L,A:256:8,16:0,32 # per-shader L1 data cache config  {<nsets>:<bsize>:<assoc>,<rep>:<wr>:<alloc>:<wr_alloc>,<mshr>:<N>:<merge>,<mq> | none}
-gpgpu_cache:dl1PrefShared S:4:128:96,L:L:s:N:L,A:256:8,16:0,32 # per-shader L1 data cache config  {<nsets>:<bsize>:<assoc>,<rep>:<wr>:<alloc>:<wr_alloc>,<mshr>:<N>:<merge>,<mq> | none}
-gpgpu_gmem_skip_L1D                    1 # global memory access skip L1D cache (implements -Xptxas -dlcm=cg, default=no skip)
-gpgpu_perfect_mem                      0 # enable perfect memory mode (no cache miss)
-n_regfile_gating_group                    4 # group of lanes that should be read/written together)
-gpgpu_clock_gated_reg_file                    0 # enable clock gated reg file for power calculations
-gpgpu_clock_gated_lanes                    1 # enable clock gated lanes for power calculations
-gpgpu_shader_registers                65536 # Number of registers per shader core. Limits number of concurrent CTAs. (default 8192)
-gpgpu_registers_per_block                 8192 # Maximum number of registers per CTA. (default 8192)
-gpgpu_ignore_resources_limitation                    1 # gpgpu_ignore_resources_limitation (default 0)
-gpgpu_shader_cta                      32 # Maximum number of concurrent CTAs in shader (default 8)
-gpgpu_num_cta_barriers                   16 # Maximum number of named barriers per CTA (default 16)
-gpgpu_n_clusters                       6 # number of processing clusters
-gpgpu_n_cores_per_cluster                    1 # number of simd cores per cluster
-gpgpu_n_cluster_ejection_buffer_size                   32 # number of packets in ejection buffer
-gpgpu_n_ldst_response_buffer_size                    2 # number of response packets in ld/st unit ejection buffer
-gpgpu_shmem_per_block                49152 # Size of shared memory per thread block or CTA (default 48kB)
-gpgpu_shmem_size                   98304 # Size of shared memory per shader core (default 16kB)
-gpgpu_adaptive_cache_config                    0 # adaptive_cache_config
-gpgpu_shmem_sizeDefault                98304 # Size of shared memory per shader core (default 16kB)
-gpgpu_shmem_size_PrefL1                98304 # Size of shared memory per shader core (default 16kB)
-gpgpu_shmem_size_PrefShared                98304 # Size of shared memory per shader core (default 16kB)
-gpgpu_shmem_num_banks                   32 # Number of banks in the shared memory in each shader core (default 16)
-gpgpu_shmem_limited_broadcast                    0 # Limit shared memory to do one broadcast per cycle (default on)
-gpgpu_shmem_warp_parts                    1 # Number of portions a warp is divided into for shared memory bank conflict check 
-gpgpu_mem_unit_ports                    1 # The number of memory transactions allowed per core cycle
-gpgpu_shmem_warp_parts                    1 # Number of portions a warp is divided into for shared memory bank conflict check 
-gpgpu_warpdistro_shader                   -1 # Specify which shader core to collect the warp size distribution from
-gpgpu_warp_issue_shader                    0 # Specify which shader core to collect the warp issue distribution from
-gpgpu_local_mem_map                    1 # Mapping from local memory space address to simulated GPU physical address space (default = enabled)
-gpgpu_num_reg_banks                   16 # Number of register banks (default = 8)
-gpgpu_reg_bank_use_warp_id                    0 # Use warp ID in mapping registers to banks (default = off)
-gpgpu_sub_core_model                    1 # Sub Core Volta/Pascal model (default = off)
-gpgpu_enable_specialized_operand_collector                    0 # enable_specialized_operand_collector
-gpgpu_operand_collector_num_units_sp                    4 # number of collector units (default = 4)
-gpgpu_operand_collector_num_units_dp                    0 # number of collector units (default = 0)
-gpgpu_operand_collector_num_units_sfu                    4 # number of collector units (default = 4)
-gpgpu_operand_collector_num_units_int                    0 # number of collector units (default = 0)
-gpgpu_operand_collector_num_units_tensor_core                    4 # number of collector units (default = 4)
-gpgpu_operand_collector_num_units_mem                    2 # number of collector units (default = 2)
-gpgpu_operand_collector_num_units_gen                    8 # number of collector units (default = 0)
-gpgpu_operand_collector_num_in_ports_sp                    1 # number of collector unit in ports (default = 1)
-gpgpu_operand_collector_num_in_ports_dp                    0 # number of collector unit in ports (default = 0)
-gpgpu_operand_collector_num_in_ports_sfu                    1 # number of collector unit in ports (default = 1)
-gpgpu_operand_collector_num_in_ports_int                    0 # number of collector unit in ports (default = 0)
-gpgpu_operand_collector_num_in_ports_tensor_core                    1 # number of collector unit in ports (default = 1)
-gpgpu_operand_collector_num_in_ports_mem                    1 # number of collector unit in ports (default = 1)
-gpgpu_operand_collector_num_in_ports_gen                    8 # number of collector unit in ports (default = 0)
-gpgpu_operand_collector_num_out_ports_sp                    1 # number of collector unit in ports (default = 1)
-gpgpu_operand_collector_num_out_ports_dp                    0 # number of collector unit in ports (default = 0)
-gpgpu_operand_collector_num_out_ports_sfu                    1 # number of collector unit in ports (default = 1)
-gpgpu_operand_collector_num_out_ports_int                    0 # number of collector unit in ports (default = 0)
-gpgpu_operand_collector_num_out_ports_tensor_core                    1 # number of collector unit in ports (default = 1)
-gpgpu_operand_collector_num_out_ports_mem                    1 # number of collector unit in ports (default = 1)
-gpgpu_operand_collector_num_out_ports_gen                    8 # number of collector unit in ports (default = 0)
-gpgpu_coalesce_arch                   61 # Coalescing arch (GT200 = 13, Fermi = 20)
-gpgpu_num_sched_per_core                    4 # Number of warp schedulers per core
-gpgpu_max_insn_issue_per_warp                    2 # Max number of instructions that can be issued per warp in one cycle by scheduler (either 1 or 2)
-gpgpu_dual_issue_diff_exec_units                    1 # should dual issue use two different execution unit resources (Default = 1)
-gpgpu_simt_core_sim_order                    1 # Select the simulation order of cores in a cluster (0=Fix, 1=Round-Robin)
-gpgpu_pipeline_widths 4,0,0,4,4,4,0,0,4,4,8 # Pipeline widths ID_OC_SP,ID_OC_DP,ID_OC_INT,ID_OC_SFU,ID_OC_MEM,OC_EX_SP,OC_EX_DP,OC_EX_INT,OC_EX_SFU,OC_EX_MEM,EX_WB,ID_OC_TENSOR_CORE,OC_EX_TENSOR_CORE
-gpgpu_tensor_core_avail                    0 # Tensor Core Available (default=0)
-gpgpu_num_sp_units                     4 # Number of SP units (default=1)
-gpgpu_num_dp_units                     0 # Number of DP units (default=0)
-gpgpu_num_int_units                    0 # Number of INT units (default=0)
-gpgpu_num_sfu_units                    4 # Number of SF units (default=1)
-gpgpu_num_tensor_core_units                    0 # Number of tensor_core units (default=1)
-gpgpu_num_mem_units                    1 # Number if ldst units (default=1) WARNING: not hooked up to anything
-gpgpu_scheduler                      gto # Scheduler configuration: < lrr | gto | two_level_active > If two_level_active:<num_active_warps>:<inner_prioritization>:<outer_prioritization>For complete list of prioritization values see shader.h enum scheduler_prioritization_typeDefault: gto
-gpgpu_concurrent_kernel_sm                    0 # Support concurrent kernels on a SM (default = disabled)
-gpgpu_perfect_inst_const_cache                    1 # perfect inst and const cache mode, so all inst and const hits in the cache(default = disabled)
-gpgpu_inst_fetch_throughput                    8 # the number of fetched intruction per warp each cycle
-gpgpu_reg_file_port_throughput                    2 # the number ports of the register file
-specialized_unit_1         0,4,4,4,4,BRA # specialized unit config {<enabled>,<num_units>:<latency>:<initiation>,<ID_OC_SPEC>:<OC_EX_SPEC>,<NAME>}
-specialized_unit_2         0,4,4,4,4,BRA # specialized unit config {<enabled>,<num_units>:<latency>:<initiation>,<ID_OC_SPEC>:<OC_EX_SPEC>,<NAME>}
-specialized_unit_3         0,4,4,4,4,BRA # specialized unit config {<enabled>,<num_units>:<latency>:<initiation>,<ID_OC_SPEC>:<OC_EX_SPEC>,<NAME>}
-specialized_unit_4         0,4,4,4,4,BRA # specialized unit config {<enabled>,<num_units>:<latency>:<initiation>,<ID_OC_SPEC>:<OC_EX_SPEC>,<NAME>}
-specialized_unit_5         0,4,4,4,4,BRA # specialized unit config {<enabled>,<num_units>:<latency>:<initiation>,<ID_OC_SPEC>:<OC_EX_SPEC>,<NAME>}
-specialized_unit_6         0,4,4,4,4,BRA # specialized unit config {<enabled>,<num_units>:<latency>:<initiation>,<ID_OC_SPEC>:<OC_EX_SPEC>,<NAME>}
-specialized_unit_7         0,4,4,4,4,BRA # specialized unit config {<enabled>,<num_units>:<latency>:<initiation>,<ID_OC_SPEC>:<OC_EX_SPEC>,<NAME>}
-specialized_unit_8         0,4,4,4,4,BRA # specialized unit config {<enabled>,<num_units>:<latency>:<initiation>,<ID_OC_SPEC>:<OC_EX_SPEC>,<NAME>}
-gpgpu_perf_sim_memcpy                    1 # Fill the L2 cache on memcpy
-gpgpu_simple_dram_model                    0 # simple_dram_model with fixed latency and BW
-gpgpu_dram_scheduler                    1 # 0 = fifo, 1 = FR-FCFS (defaul)
-gpgpu_dram_partition_queues          32:32:32:32 # i2$:$2d:d2$:$2i
-l2_ideal                               0 # Use a ideal L2 cache that always hit
-gpgpu_cache:dl2     S:64:128:16,L:B:m:L:P,A:256:64,16:0,32 # unified banked L2 data cache config  {<nsets>:<bsize>:<assoc>,<rep>:<wr>:<alloc>:<wr_alloc>,<mshr>:<N>:<merge>,<mq>}
-gpgpu_cache:dl2_texture_only                    0 # L2 cache used for texture only
-gpgpu_n_mem                           12 # number of memory modules (e.g. memory controllers) in gpu
-gpgpu_n_sub_partition_per_mchannel                    2 # number of memory subpartition in each memory module
-gpgpu_n_mem_per_ctrlr                    1 # number of memory chips per memory controller
-gpgpu_memlatency_stat                   14 # track and display latency statistics 0x2 enables MC, 0x4 enables queue logs
-gpgpu_frfcfs_dram_sched_queue_size                   64 # 0 = unlimited (default); # entries per chip
-gpgpu_dram_return_queue_size                   64 # 0 = unlimited (default); # entries per chip
-gpgpu_dram_buswidth                    4 # default = 4 bytes (8 bytes per cycle at DDR)
-gpgpu_dram_burst_length                    8 # Burst length of each DRAM request (default = 4 data bus cycle)
-dram_data_command_freq_ratio                    4 # Frequency ratio between DRAM data bus and command bus (default = 2 times, i.e. DDR)
-gpgpu_dram_timing_opt nbk=16:CCD=2:RRD=8:RCD=16:RAS=37:RP=16:RC=52: CL=16:WL=6:CDLR=7:WR=16:nbkgrp=4:CCDL=4:RTPL=3 # DRAM timing parameters = {nbk:tCCD:tRRD:tRCD:tRAS:tRP:tRC:CL:WL:tCDLR:tWR:nbkgrp:tCCDL:tRTPL}
-gpgpu_l2_rop_latency                  120 # ROP queue latency (default 85)
-dram_latency                         100 # DRAM latency (default 30)
-dram_dual_bus_interface                    0 # dual_bus_interface (default = 0) 
-dram_bnk_indexing_policy                    0 # dram_bnk_indexing_policy (0 = normal indexing, 1 = Xoring with the higher bits) (Default = 0)
-dram_bnkgrp_indexing_policy                    1 # dram_bnkgrp_indexing_policy (0 = take higher bits, 1 = take lower bits) (Default = 0)
-dram_seperate_write_queue_enable                    0 # Seperate_Write_Queue_Enable
-dram_write_queue_size             32:28:16 # Write_Queue_Size
-dram_elimnate_rw_turnaround                    0 # elimnate_rw_turnaround i.e set tWTR and tRTW = 0
-icnt_flit_size                        40 # icnt_flit_size
-gpgpu_mem_addr_mapping dramid@8;00000000.00000000.00000000.00000000.0000RRRR.RRRRRRRR.RBBBCCCC.BCCSSSSS # mapping memory address to dram model {dramid@<start bit>;<memory address map>}
-gpgpu_mem_addr_test                    0 # run sweep test to check address mapping for aliased address
-gpgpu_mem_address_mask                    1 # 0 = old addressing mask, 1 = new addressing mask, 2 = new add. mask + flipped bank sel and chip sel bits
-gpgpu_memory_partition_indexing                    4 # 0 = no indexing, 1 = bitwise xoring, 2 = IPoly, 3 = custom indexing
-accelwattch_xml_file accelwattch_ptx_sim.xml # AccelWattch XML file
-power_simulation_enabled                    1 # Turn on power simulator (1=On, 0=Off)
-power_per_cycle_dump                    0 # Dump detailed power output each cycle
-hw_perf_file_name            hw_perf.csv # Hardware Performance Statistics file
-hw_perf_bench_name                       # Kernel Name in Hardware Performance Statistics file
-power_simulation_mode                    0 # Switch performance counter input for power simulation (0=Sim, 1=HW, 2=HW-Sim Hybrid)
-dvfs_enabled                           0 # Turn on DVFS for power model
-aggregate_power_stats                    0 # Accumulate power across all kernels
-accelwattch_hybrid_perfsim_L1_RH                    0 # Get L1 Read Hits for Accelwattch-Hybrid from Accel-Sim
-accelwattch_hybrid_perfsim_L1_RM                    0 # Get L1 Read Misses for Accelwattch-Hybrid from Accel-Sim
-accelwattch_hybrid_perfsim_L1_WH                    0 # Get L1 Write Hits for Accelwattch-Hybrid from Accel-Sim
-accelwattch_hybrid_perfsim_L1_WM                    0 # Get L1 Write Misses for Accelwattch-Hybrid from Accel-Sim
-accelwattch_hybrid_perfsim_L2_RH                    0 # Get L2 Read Hits for Accelwattch-Hybrid from Accel-Sim
-accelwattch_hybrid_perfsim_L2_RM                    0 # Get L2 Read Misses for Accelwattch-Hybrid from Accel-Sim
-accelwattch_hybrid_perfsim_L2_WH                    0 # Get L2 Write Hits for Accelwattch-Hybrid from Accel-Sim
-accelwattch_hybrid_perfsim_L2_WM                    0 # Get L2 Write Misses for Accelwattch-Hybrid from Accel-Sim
-accelwattch_hybrid_perfsim_CC_ACC                    0 # Get Constant Cache Acesses for Accelwattch-Hybrid from Accel-Sim
-accelwattch_hybrid_perfsim_SHARED_ACC                    0 # Get Shared Memory Acesses for Accelwattch-Hybrid from Accel-Sim
-accelwattch_hybrid_perfsim_DRAM_RD                    0 # Get DRAM Reads for Accelwattch-Hybrid from Accel-Sim
-accelwattch_hybrid_perfsim_DRAM_WR                    0 # Get DRAM Writes for Accelwattch-Hybrid from Accel-Sim
-accelwattch_hybrid_perfsim_NOC                    0 # Get Interconnect Acesses for Accelwattch-Hybrid from Accel-Sim
-accelwattch_hybrid_perfsim_PIPE_DUTY                    0 # Get Pipeline Duty Cycle Acesses for Accelwattch-Hybrid from Accel-Sim
-accelwattch_hybrid_perfsim_NUM_SM_IDLE                    0 # Get Number of Idle SMs for Accelwattch-Hybrid from Accel-Sim
-accelwattch_hybrid_perfsim_CYCLES                    0 # Get Executed Cycles for Accelwattch-Hybrid from Accel-Sim
-accelwattch_hybrid_perfsim_VOLTAGE                    0 # Get Chip Voltage for Accelwattch-Hybrid from Accel-Sim
-power_trace_enabled                    0 # produce a file for the power trace (1=On, 0=Off)
-power_trace_zlevel                     6 # Compression level of the power trace output log (0=no comp, 9=highest)
-steady_power_levels_enabled                    0 # produce a file for the steady power levels (1=On, 0=Off)
-steady_state_definition                  8:4 # allowed deviation:number of samples
-gpgpu_max_cycle                        0 # terminates gpu simulation early (0 = no limit)
-gpgpu_max_insn                         0 # terminates gpu simulation early (0 = no limit)
-gpgpu_max_cta                          0 # terminates gpu simulation early (0 = no limit)
-gpgpu_max_completed_cta                    0 # terminates gpu simulation early (0 = no limit)
-gpgpu_runtime_stat                   500 # display runtime statistics such as dram utilization {<freq>:<flag>}
-liveness_message_freq                    1 # Minimum number of seconds between simulation liveness messages (0 = always print)
-gpgpu_compute_capability_major                    6 # Major compute capability version number
-gpgpu_compute_capability_minor                    1 # Minor compute capability version number
-gpgpu_flush_l1_cache                    1 # Flush L1 cache at the end of each kernel call
-gpgpu_flush_l2_cache                    0 # Flush L2 cache at the end of each kernel call
-gpgpu_deadlock_detect                    1 # Stop the simulation at deadlock (1=on (default), 0=off)
-gpgpu_ptx_instruction_classification                    0 # if enabled will classify ptx instruction types per kernel (Max 255 kernels now)
-gpgpu_ptx_sim_mode                     0 # Select between Performance (default) or Functional simulation (1)
-gpgpu_clock_domains 1417.0:1417.0:1417.0:2500.0 # Clock Domain Frequencies in MhZ {<Core Clock>:<ICNT Clock>:<L2 Clock>:<DRAM Clock>}
-gpgpu_max_concurrent_kernel                    8 # maximum kernels that can run concurrently on GPU
-gpgpu_cflog_interval                    0 # Interval between each snapshot in control flow logger
-visualizer_enabled                     0 # Turn on visualizer output (1=On, 0=Off)
-visualizer_outputfile                 NULL # Specifies the output log file for visualizer
-visualizer_zlevel                      6 # Compression level of the visualizer output log (0=no comp, 9=highest)
-gpgpu_stack_size_limit                 1024 # GPU thread stack size
-gpgpu_heap_size_limit              8388608 # GPU malloc heap size 
-gpgpu_runtime_sync_depth_limit                    2 # GPU device runtime synchronize depth
-gpgpu_runtime_pending_launch_count_limit                 2048 # GPU device runtime pending launch count
-trace_enabled                          0 # Turn on traces
-trace_components                    none # comma seperated list of traces to enable. Complete list found in trace_streams.tup. Default none
-trace_sampling_core                    0 # The core which is printed using CORE_DPRINTF. Default 0
-trace_sampling_memory_partition                   -1 # The memory partition which is printed using MEMPART_DPRINTF. Default -1 (i.e. all)
-enable_ptx_file_line_stats                    1 # Turn on PTX source line statistic profiling. (1 = On)
-ptx_line_stats_filename gpgpu_inst_stats.txt # Output file for PTX source line statistics.
-gpgpu_kernel_launch_latency                 5000 # Kernel launch latency in cycles. Default: 0
-gpgpu_cdp_enabled                      0 # Turn on CDP
-gpgpu_TB_launch_latency                    0 # thread block launch latency in cycles. Default: 0
DRAM Timing Options:
nbk                                    16 # number of banks
CCD                                     2 # column to column delay
RRD                                     8 # minimal delay between activation of rows in different banks
RCD                                    16 # row to column delay
RAS                                    37 # time needed to activate row
RP                                     16 # time needed to precharge (deactivate) row
RC                                     52 # row cycle time
CDLR                                    7 # switching from write to read (changes tWTR)
WR                                     16 # last data-in to row precharge
CL                                     16 # CAS latency
WL                                      6 # Write latency
nbkgrp                                  4 # number of bank groups
CCDL                                    4 # column to column delay between accesses to different bank groups
RTPL                                    3 # read to precharge delay between accesses to different bank groups
Total number of memory sub partition = 24
addr_dec_mask[CHIP]  = 0000000000000000 	high:64 low:0
addr_dec_mask[BK]    = 0000000000007080 	high:15 low:7
addr_dec_mask[ROW]   = 000000000fff8000 	high:28 low:15
addr_dec_mask[COL]   = 0000000000000f7f 	high:12 low:0
addr_dec_mask[BURST] = 000000000000001f 	high:5 low:0
sub_partition_id_mask = 0000000000000080
GPGPU-Sim uArch: clock freqs: 1417000000.000000:1417000000.000000:1417000000.000000:2500000000.000000
GPGPU-Sim uArch: clock periods: 0.00000000070571630205:0.00000000070571630205:0.00000000070571630205:0.00000000040000000000
*** Initializing Memory Statistics ***
GPGPU-Sim uArch: interconnect node map (shaderID+MemID to icntID)
GPGPU-Sim uArch: Memory nodes ID start from index: 6
GPGPU-Sim uArch:    0   1   2   3   4   5   6
GPGPU-Sim uArch:    7   8   9  10  11  12  13
GPGPU-Sim uArch:   14  15  16  17  18  19  20
GPGPU-Sim uArch:   21  22  23  24  25  26  27
GPGPU-Sim uArch:   28  29  30  31  32  33  34
GPGPU-Sim uArch:   35  36  37  38  39  40  41
GPGPU-Sim uArch:   42  43  44  45  46  47  48
GPGPU-Sim uArch:   49  50  51
GPGPU-Sim uArch: interconnect node reverse map (icntID to shaderID+MemID)
GPGPU-Sim uArch: Memory nodes start from ID: 6
GPGPU-Sim uArch:    0   1   2   3   4   5   6
GPGPU-Sim uArch:    7   8   9  10  11  12  13
GPGPU-Sim uArch:   14  15  16  17  18  19  20
GPGPU-Sim uArch:   21  22  23  24  25  26  27
GPGPU-Sim uArch:   28  29  30  31  32  33  34
GPGPU-Sim uArch:   35  36  37  38  39  40  41
GPGPU-Sim uArch:   42  43  44  45  46  47  48
GPGPU-Sim uArch:   49  50  51
e35a7a84fbb3904eca97f6ea22018d29  /home/htran197/accel-sim-framework/util/accelwattch/accelwattch_benchmarks/validation/sobolQRNG
Extracting PTX file and ptxas options    1: sobolQRNG.1.sm_61.ptx -arch=sm_61
Extracting PTX file and ptxas options    2: sobolQRNG.2.sm_70.ptx -arch=sm_70
Extracting PTX file and ptxas options    3: sobolQRNG.3.sm_75.ptx -arch=sm_75
GPGPU-Sim uArch: performance model initialization complete.
self exe links to: /home/htran197/accel-sim-framework/util/accelwattch/accelwattch_benchmarks/validation/sobolQRNG
self exe links to: /home/htran197/accel-sim-framework/util/accelwattch/accelwattch_benchmarks/validation/sobolQRNG
11.0
GPGPU-Sim PTX: __cudaRegisterFatBinary, fat_cubin_handle = 1, filename=default
self exe links to: /home/htran197/accel-sim-framework/util/accelwattch/accelwattch_benchmarks/validation/sobolQRNG
Running md5sum using "md5sum /home/htran197/accel-sim-framework/util/accelwattch/accelwattch_benchmarks/validation/sobolQRNG "
self exe links to: /home/htran197/accel-sim-framework/util/accelwattch/accelwattch_benchmarks/validation/sobolQRNG
Extracting specific PTX file named sobolQRNG.1.sm_61.ptx 
Extracting specific PTX file named sobolQRNG.2.sm_70.ptx 
Extracting specific PTX file named sobolQRNG.3.sm_75.ptx 
GPGPU-Sim PTX: __cudaRegisterFunction _Z15sobolGPU_kerneljjPjPf : hostFun 0x0x55713bd1a1ff, fat_cubin_handle = 1
GPGPU-Sim PTX: Parsing sobolQRNG.1.sm_61.ptx
GPGPU-Sim PTX: allocating global region for "_ZZN77_INTERNAL_55_tmpxft_000037db_00000000_8_sobol_gpu_compute_75_cpp1_ii_50d613d918cooperative_groups4__v17details17_binary_partitionINS1_15coalesced_groupEEES4_RKT_bE8fullMask" from 0x100 to 0x104 (global memory space)
GPGPU-Sim PTX: allocating shared region for "_ZZ15sobolGPU_kerneljjPjPfE1v" from 0x0 to 0x80 (shared memory space)
GPGPU-Sim PTX: instruction assembly for function '_Z15sobolGPU_kerneljjPjPf'...   done.
GPGPU-Sim PTX: finished parsing EMBEDDED .ptx file sobolQRNG.1.sm_61.ptx
GPGPU-Sim PTX: Parsing sobolQRNG.2.sm_70.ptx
GPGPU-Sim PTX: Warning _ZZN77_INTERNAL_55_tmpxft_000037db_00000000_8_sobol_gpu_compute_75_cpp1_ii_50d613d918cooperative_groups4__v17details17_binary_partitionINS1_15coalesced_groupEEES4_RKT_bE8fullMask was declared previous at sobolQRNG.1.sm_61.ptx:15 skipping new declaration
GPGPU-Sim PTX: Warning %p0 was declared previous at sobolQRNG.1.sm_61.ptx:24 skipping new declaration
GPGPU-Sim PTX: Warning %p1 was declared previous at sobolQRNG.1.sm_61.ptx:24 skipping new declaration
GPGPU-Sim PTX: Warning %p2 was declared previous at sobolQRNG.1.sm_61.ptx:24 skipping new declaration
GPGPU-Sim PTX: Warning %p3 was declared previous at sobolQRNG.1.sm_61.ptx:24 skipping new declaration
GPGPU-Sim PTX: Warning %p4 was declared previous at sobolQRNG.1.sm_61.ptx:24 skipping new declaration
GPGPU-Sim PTX: Warning %p5 was declared previous at sobolQRNG.1.sm_61.ptx:24 skipping new declaration
GPGPU-Sim PTX: Warning %p6 was declared previous at sobolQRNG.1.sm_61.ptx:24 skipping new declaration
GPGPU-Sim PTX: Warning %p7 was declared previous at sobolQRNG.1.sm_61.ptx:24 skipping new declaration
GPGPU-Sim PTX: Warning %p8 was declared previous at sobolQRNG.1.sm_61.ptx:24 skipping new declaration
GPGPU-Sim PTX: Warning %p9 was declared previous at sobolQRNG.1.sm_61.ptx:24 skipping new declaration
GPGPU-Sim PTX: Warning %p10 was declared previous at sobolQRNG.1.sm_61.ptx:24 skipping new declaration
GPGPU-Sim PTX: Warning %f0 was declared previous at sobolQRNG.1.sm_61.ptx:25 skipping new declaration
GPGPU-Sim PTX: Warning %f1 was declared previous at sobolQRNG.1.sm_61.ptx:25 skipping new declaration
GPGPU-Sim PTX: Warning %f2 was declared previous at sobolQRNG.1.sm_61.ptx:25 skipping new declaration
GPGPU-Sim PTX: Warning %f3 was declared previous at sobolQRNG.1.sm_61.ptx:25 skipping new declaration
GPGPU-Sim PTX: Warning %f4 was declared previous at sobolQRNG.1.sm_61.ptx:25 skipping new declaration
GPGPU-Sim PTX: Warning %r0 was declared previous at sobolQRNG.1.sm_61.ptx:26 skipping new declaration
GPGPU-Sim PTX: Warning %r1 was declared previous at sobolQRNG.1.sm_61.ptx:26 skipping new declaration
GPGPU-Sim PTX: Warning %r2 was declared previous at sobolQRNG.1.sm_61.ptx:26 skipping new declaration
GPGPU-Sim PTX: Warning %r3 was declared previous at sobolQRNG.1.sm_61.ptx:26 skipping new declaration
GPGPU-Sim PTX: Warning %r4 was declared previous at sobolQRNG.1.sm_61.ptx:26 skipping new declaration
GPGPU-Sim PTX: Warning %r5 was declared previous at sobolQRNG.1.sm_61.ptx:26 skipping new declaration
GPGPU-Sim PTX: Warning %r6 was declared previous at sobolQRNG.1.sm_61.ptx:26 skipping new declaration
GPGPU-Sim PTX: Warning %r7 was declared previous at sobolQRNG.1.sm_61.ptx:26 skipping new declaration
GPGPU-Sim PTX: Warning %r8 was declared previous at sobolQRNG.1.sm_61.ptx:26 skipping new declaration
GPGPU-Sim PTX: Warning %r9 was declared previous at sobolQRNG.1.sm_61.ptx:26 skipping new declaration
GPGPU-Sim PTX: Warning %r10 was declared previous at sobolQRNG.1.sm_61.ptx:26 skipping new declaration
GPGPU-Sim PTX: Warning %r11 was declared previous at sobolQRNG.1.sm_61.ptx:26 skipping new declaration
GPGPU-Sim PTX: Warning %r12 was declared previous at sobolQRNG.1.sm_61.ptx:26 skipping new declaration
GPGPU-Sim PTX: Warning %r13 was declared previous at sobolQRNG.1.sm_61.ptx:26 skipping new declaration
GPGPU-Sim PTX: Warning %r14 was declared previous at sobolQRNG.1.sm_61.ptx:26 skipping new declaration
GPGPU-Sim PTX: Warning %r15 was declared previous at sobolQRNG.1.sm_61.ptx:26 skipping new declaration
GPGPU-Sim PTX: Warning %r16 was declared previous at sobolQRNG.1.sm_61.ptx:26 skipping new declaration
GPGPU-Sim PTX: Warning %r17 was declared previous at sobolQRNG.1.sm_61.ptx:26 skipping new declaration
GPGPU-Sim PTX: Warning %r18 was declared previous at sobolQRNG.1.sm_61.ptx:26 skipping new declaration
GPGPU-Sim PTX: Warning %r19 was declared previous at sobolQRNG.1.sm_61.ptx:26 skipping new declaration
GPGPU-Sim PTX: Warning %r20 was declared previous at sobolQRNG.1.sm_61.ptx:26 skipping new declaration
GPGPU-Sim PTX: Warning %r21 was declared previous at sobolQRNG.1.sm_61.ptx:26 skipping new declaration
GPGPU-Sim PTX: Warning %r22 was declared previous at sobolQRNG.1.sm_61.ptx:26 skipping new declaration
GPGPU-Sim PTX: Warning %r23 was declared previous at sobolQRNG.1.sm_61.ptx:26 skipping new declaration
GPGPU-Sim PTX: Warning %r24 was declared previous at sobolQRNG.1.sm_61.ptx:26 skipping new declaration
GPGPU-Sim PTX: Warning %r25 was declared previous at sobolQRNG.1.sm_61.ptx:26 skipping new declaration
GPGPU-Sim PTX: Warning %r26 was declared previous at sobolQRNG.1.sm_61.ptx:26 skipping new declaration
GPGPU-Sim PTX: Warning %r27 was declared previous at sobolQRNG.1.sm_61.ptx:26 skipping new declaration
GPGPU-Sim PTX: Warning %r28 was declared previous at sobolQRNG.1.sm_61.ptx:26 skipping new declaration
GPGPU-Sim PTX: Warning %r29 was declared previous at sobolQRNG.1.sm_61.ptx:26 skipping new declaration
GPGPU-Sim PTX: Warning %r30 was declared previous at sobolQRNG.1.sm_61.ptx:26 skipping new declaration
GPGPU-Sim PTX: Warning %r31 was declared previous at sobolQRNG.1.sm_61.ptx:26 skipping new declaration
GPGPU-Sim PTX: Warning %r32 was declared previous at sobolQRNG.1.sm_61.ptx:26 skipping new declaration
GPGPU-Sim PTX: Warning %r33 was declared previous at sobolQRNG.1.sm_61.ptx:26 skipping new declaration
GPGPU-Sim PTX: Warning %r34 was declared previous at sobolQRNG.1.sm_61.ptx:26 skipping new declaration
GPGPU-Sim PTX: Warning %r35 was declared previous at sobolQRNG.1.sm_61.ptx:26 skipping new declaration
GPGPU-Sim PTX: Warning %r36 was declared previous at sobolQRNG.1.sm_61.ptx:26 skipping new declaration
GPGPU-Sim PTX: Warning %r37 was declared previous at sobolQRNG.1.sm_61.ptx:26 skipping new declaration
GPGPU-Sim PTX: Warning %r38 was declared previous at sobolQRNG.1.sm_61.ptx:26 skipping new declaration
GPGPU-Sim PTX: Warning %r39 was declared previous at sobolQRNG.1.sm_61.ptx:26 skipping new declaration
GPGPU-Sim PTX: Warning %r40 was declared previous at sobolQRNG.1.sm_61.ptx:26 skipping new declaration
GPGPU-Sim PTX: Warning %r41 was declared previous at sobolQRNG.1.sm_61.ptx:26 skipping new declaration
GPGPU-Sim PTX: Warning %r42 was declared previous at sobolQRNG.1.sm_61.ptx:26 skipping new declaration
GPGPU-Sim PTX: Warning %r43 was declared previous at sobolQRNG.1.sm_61.ptx:26 skipping new declaration
GPGPU-Sim PTX: Warning %r44 was declared previous at sobolQRNG.1.sm_61.ptx:26 skipping new declaration
GPGPU-Sim PTX: Warning %r45 was declared previous at sobolQRNG.1.sm_61.ptx:26 skipping new declaration
GPGPU-Sim PTX: Warning %r46 was declared previous at sobolQRNG.1.sm_61.ptx:26 skipping new declaration
GPGPU-Sim PTX: Warning %r47 was declared previous at sobolQRNG.1.sm_61.ptx:26 skipping new declaration
GPGPU-Sim PTX: Warning %r48 was declared previous at sobolQRNG.1.sm_61.ptx:26 skipping new declaration
GPGPU-Sim PTX: Warning %r49 was declared previous at sobolQRNG.1.sm_61.ptx:26 skipping new declaration
GPGPU-Sim PTX: Warning %r50 was declared previous at sobolQRNG.1.sm_61.ptx:26 skipping new declaration
GPGPU-Sim PTX: Warning %r51 was declared previous at sobolQRNG.1.sm_61.ptx:26 skipping new declaration
GPGPU-Sim PTX: Warning %r52 was declared previous at sobolQRNG.1.sm_61.ptx:26 skipping new declaration
GPGPU-Sim PTX: Warning %r53 was declared previous at sobolQRNG.1.sm_61.ptx:26 skipping new declaration
GPGPU-Sim PTX: Warning %r54 was declared previous at sobolQRNG.1.sm_61.ptx:26 skipping new declaration
GPGPU-Sim PTX: Warning %r55 was declared previous at sobolQRNG.1.sm_61.ptx:26 skipping new declaration
GPGPU-Sim PTX: Warning %r56 was declared previous at sobolQRNG.1.sm_61.ptx:26 skipping new declaration
GPGPU-Sim PTX: Warning %r57 was declared previous at sobolQRNG.1.sm_61.ptx:26 skipping new declaration
GPGPU-Sim PTX: Warning %r58 was declared previous at sobolQRNG.1.sm_61.ptx:26 skipping new declaration
GPGPU-Sim PTX: Warning %r59 was declared previous at sobolQRNG.1.sm_61.ptx:26 skipping new declaration
GPGPU-Sim PTX: Warning %r60 was declared previous at sobolQRNG.1.sm_61.ptx:26 skipping new declaration
GPGPU-Sim PTX: Warning %r61 was declared previous at sobolQRNG.1.sm_61.ptx:26 skipping new declaration
GPGPU-Sim PTX: Warning %r62 was declared previous at sobolQRNG.1.sm_61.ptx:26 skipping new declaration
GPGPU-Sim PTX: Warning %r63 was declared previous at sobolQRNG.1.sm_61.ptx:26 skipping new declaration
GPGPU-Sim PTX: Warning %r64 was declared previous at sobolQRNG.1.sm_61.ptx:26 skipping new declaration
GPGPU-Sim PTX: Warning %r65 was declared previous at sobolQRNG.1.sm_61.ptx:26 skipping new declaration
GPGPU-Sim PTX: Warning %r66 was declared previous at sobolQRNG.1.sm_61.ptx:26 skipping new declaration
GPGPU-Sim PTX: Warning %r67 was declared previous at sobolQRNG.1.sm_61.ptx:26 skipping new declaration
GPGPU-Sim PTX: Warning %r68 was declared previous at sobolQRNG.1.sm_61.ptx:26 skipping new declaration
GPGPU-Sim PTX: Warning %r69 was declared previous at sobolQRNG.1.sm_61.ptx:26 skipping new declaration
GPGPU-Sim PTX: Warning %r70 was declared previous at sobolQRNG.1.sm_61.ptx:26 skipping new declaration
GPGPU-Sim PTX: Warning %r71 was declared previous at sobolQRNG.1.sm_61.ptx:26 skipping new declaration
GPGPU-Sim PTX: Warning %r72 was declared previous at sobolQRNG.1.sm_61.ptx:26 skipping new declaration
GPGPU-Sim PTX: Warning %r73 was declared previous at sobolQRNG.1.sm_61.ptx:26 skipping new declaration
GPGPU-Sim PTX: Warning %r74 was declared previous at sobolQRNG.1.sm_61.ptx:26 skipping new declaration
GPGPU-Sim PTX: Warning %r75 was declared previous at sobolQRNG.1.sm_61.ptx:26 skipping new declaration
GPGPU-Sim PTX: Warning %r76 was declared previous at sobolQRNG.1.sm_61.ptx:26 skipping new declaration
GPGPU-Sim PTX: Warning %r77 was declared previous at sobolQRNG.1.sm_61.ptx:26 skipping new declaration
GPGPU-Sim PTX: Warning %r78 was declared previous at sobolQRNG.1.sm_61.ptx:26 skipping new declaration
GPGPU-Sim PTX: Warning %r79 was declared previous at sobolQRNG.1.sm_61.ptx:26 skipping new declaration
GPGPU-Sim PTX: Warning %r80 was declared previous at sobolQRNG.1.sm_61.ptx:26 skipping new declaration
GPGPU-Sim PTX: Warning %r81 was declared previous at sobolQRNG.1.sm_61.ptx:26 skipping new declaration
GPGPU-Sim PTX: Warning %r82 was declared previous at sobolQRNG.1.sm_61.ptx:26 skipping new declaration
GPGPU-Sim PTX: Warning %r83 was declared previous at sobolQRNG.1.sm_61.ptx:26 skipping new declaration
GPGPU-Sim PTX: Warning %r84 was declared previous at sobolQRNG.1.sm_61.ptx:26 skipping new declaration
GPGPU-Sim PTX: Warning %r85 was declared previous at sobolQRNG.1.sm_61.ptx:26 skipping new declaration
GPGPU-Sim PTX: Warning %r86 was declared previous at sobolQRNG.1.sm_61.ptx:26 skipping new declaration
GPGPU-Sim PTX: Warning %r87 was declared previous at sobolQRNG.1.sm_61.ptx:26 skipping new declaration
GPGPU-Sim PTX: Warning %r88 was declared previous at sobolQRNG.1.sm_61.ptx:26 skipping new declaration
GPGPU-Sim PTX: Warning %r89 was declared previous at sobolQRNG.1.sm_61.ptx:26 skipping new declaration
GPGPU-Sim PTX: Warning %r90 was declared previous at sobolQRNG.1.sm_61.ptx:26 skipping new declaration
GPGPU-Sim PTX: Warning %r91 was declared previous at sobolQRNG.1.sm_61.ptx:26 skipping new declaration
GPGPU-Sim PTX: Warning %r92 was declared previous at sobolQRNG.1.sm_61.ptx:26 skipping new declaration
GPGPU-Sim PTX: Warning %r93 was declared previous at sobolQRNG.1.sm_61.ptx:26 skipping new declaration
GPGPU-Sim PTX: Warning %r94 was declared previous at sobolQRNG.1.sm_61.ptx:26 skipping new declaration
GPGPU-Sim PTX: Warning %r95 was declared previous at sobolQRNG.1.sm_61.ptx:26 skipping new declaration
GPGPU-Sim PTX: Warning %r96 was declared previous at sobolQRNG.1.sm_61.ptx:26 skipping new declaration
GPGPU-Sim PTX: Warning %r97 was declared previous at sobolQRNG.1.sm_61.ptx:26 skipping new declaration
GPGPU-Sim PTX: Warning %r98 was declared previous at sobolQRNG.1.sm_61.ptx:26 skipping new declaration
GPGPU-Sim PTX: Warning %r99 was declared previous at sobolQRNG.1.sm_61.ptx:26 skipping new declaration
GPGPU-Sim PTX: Warning %r100 was declared previous at sobolQRNG.1.sm_61.ptx:26 skipping new declaration
GPGPU-Sim PTX: Warning %r101 was declared previous at sobolQRNG.1.sm_61.ptx:26 skipping new declaration
GPGPU-Sim PTX: Warning %r102 was declared previous at sobolQRNG.1.sm_61.ptx:26 skipping new declaration
GPGPU-Sim PTX: Warning %r103 was declared previous at sobolQRNG.1.sm_61.ptx:26 skipping new declaration
GPGPU-Sim PTX: Warning %r104 was declared previous at sobolQRNG.1.sm_61.ptx:26 skipping new declaration
GPGPU-Sim PTX: Warning %r105 was declared previous at sobolQRNG.1.sm_61.ptx:26 skipping new declaration
GPGPU-Sim PTX: Warning %r106 was declared previous at sobolQRNG.1.sm_61.ptx:26 skipping new declaration
GPGPU-Sim PTX: Warning %r107 was declared previous at sobolQRNG.1.sm_61.ptx:26 skipping new declaration
GPGPU-Sim PTX: Warning %r108 was declared previous at sobolQRNG.1.sm_61.ptx:26 skipping new declaration
GPGPU-Sim PTX: Warning %r109 was declared previous at sobolQRNG.1.sm_61.ptx:26 skipping new declaration
GPGPU-Sim PTX: Warning %r110 was declared previous at sobolQRNG.1.sm_61.ptx:26 skipping new declaration
GPGPU-Sim PTX: Warning %r111 was declared previous at sobolQRNG.1.sm_61.ptx:26 skipping new declaration
GPGPU-Sim PTX: Warning %r112 was declared previous at sobolQRNG.1.sm_61.ptx:26 skipping new declaration
GPGPU-Sim PTX: Warning %r113 was declared previous at sobolQRNG.1.sm_61.ptx:26 skipping new declaration
GPGPU-Sim PTX: Warning %r114 was declared previous at sobolQRNG.1.sm_61.ptx:26 skipping new declaration
GPGPU-Sim PTX: Warning %r115 was declared previous at sobolQRNG.1.sm_61.ptx:26 skipping new declaration
GPGPU-Sim PTX: Warning %r116 was declared previous at sobolQRNG.1.sm_61.ptx:26 skipping new declaration
GPGPU-Sim PTX: Warning %r117 was declared previous at sobolQRNG.1.sm_61.ptx:26 skipping new declaration
GPGPU-Sim PTX: Warning %r118 was declared previous at sobolQRNG.1.sm_61.ptx:26 skipping new declaration
GPGPU-Sim PTX: Warning %r119 was declared previous at sobolQRNG.1.sm_61.ptx:26 skipping new declaration
GPGPU-Sim PTX: Warning %r120 was declared previous at sobolQRNG.1.sm_61.ptx:26 skipping new declaration
GPGPU-Sim PTX: Warning %r121 was declared previous at sobolQRNG.1.sm_61.ptx:26 skipping new declaration
GPGPU-Sim PTX: Warning %r122 was declared previous at sobolQRNG.1.sm_61.ptx:26 skipping new declaration
GPGPU-Sim PTX: Warning %r123 was declared previous at sobolQRNG.1.sm_61.ptx:26 skipping new declaration
GPGPU-Sim PTX: Warning %r124 was declared previous at sobolQRNG.1.sm_61.ptx:26 skipping new declaration
GPGPU-Sim PTX: Warning %r125 was declared previous at sobolQRNG.1.sm_61.ptx:26 skipping new declaration
GPGPU-Sim PTX: Warning %r126 was declared previous at sobolQRNG.1.sm_61.ptx:26 skipping new declaration
GPGPU-Sim PTX: Warning %r127 was declared previous at sobolQRNG.1.sm_61.ptx:26 skipping new declaration
GPGPU-Sim PTX: Warning %r128 was declared previous at sobolQRNG.1.sm_61.ptx:26 skipping new declaration
GPGPU-Sim PTX: Warning %r129 was declared previous at sobolQRNG.1.sm_61.ptx:26 skipping new declaration
GPGPU-Sim PTX: Warning %r130 was declared previous at sobolQRNG.1.sm_61.ptx:26 skipping new declaration
GPGPU-Sim PTX: Warning %r131 was declared previous at sobolQRNG.1.sm_61.ptx:26 skipping new declaration
GPGPU-Sim PTX: Warning %r132 was declared previous at sobolQRNG.1.sm_61.ptx:26 skipping new declaration
GPGPU-Sim PTX: Warning %r133 was declared previous at sobolQRNG.1.sm_61.ptx:26 skipping new declaration
GPGPU-Sim PTX: Warning %r134 was declared previous at sobolQRNG.1.sm_61.ptx:26 skipping new declaration
GPGPU-Sim PTX: Warning %r135 was declared previous at sobolQRNG.1.sm_61.ptx:26 skipping new declaration
GPGPU-Sim PTX: Warning %r136 was declared previous at sobolQRNG.1.sm_61.ptx:26 skipping new declaration
GPGPU-Sim PTX: Warning %r137 was declared previous at sobolQRNG.1.sm_61.ptx:26 skipping new declaration
GPGPU-Sim PTX: Warning %r138 was declared previous at sobolQRNG.1.sm_61.ptx:26 skipping new declaration
GPGPU-Sim PTX: Warning %r139 was declared previous at sobolQRNG.1.sm_61.ptx:26 skipping new declaration
GPGPU-Sim PTX: Warning %r140 was declared previous at sobolQRNG.1.sm_61.ptx:26 skipping new declaration
GPGPU-Sim PTX: Warning %r141 was declared previous at sobolQRNG.1.sm_61.ptx:26 skipping new declaration
GPGPU-Sim PTX: Warning %r142 was declared previous at sobolQRNG.1.sm_61.ptx:26 skipping new declaration
GPGPU-Sim PTX: Warning %r143 was declared previous at sobolQRNG.1.sm_61.ptx:26 skipping new declaration
GPGPU-Sim PTX: Warning %r144 was declared previous at sobolQRNG.1.sm_61.ptx:26 skipping new declaration
GPGPU-Sim PTX: Warning %r145 was declared previous at sobolQRNG.1.sm_61.ptx:26 skipping new declaration
GPGPU-Sim PTX: Warning %r146 was declared previous at sobolQRNG.1.sm_61.ptx:26 skipping new declaration
GPGPU-Sim PTX: Warning %r147 was declared previous at sobolQRNG.1.sm_61.ptx:26 skipping new declaration
GPGPU-Sim PTX: Warning %r148 was declared previous at sobolQRNG.1.sm_61.ptx:26 skipping new declaration
GPGPU-Sim PTX: Warning %r149 was declared previous at sobolQRNG.1.sm_61.ptx:26 skipping new declaration
GPGPU-Sim PTX: Warning %r150 was declared previous at sobolQRNG.1.sm_61.ptx:26 skipping new declaration
GPGPU-Sim PTX: Warning %rd0 was declared previous at sobolQRNG.1.sm_61.ptx:27 skipping new declaration
GPGPU-Sim PTX: Warning %rd1 was declared previous at sobolQRNG.1.sm_61.ptx:27 skipping new declaration
GPGPU-Sim PTX: Warning %rd2 was declared previous at sobolQRNG.1.sm_61.ptx:27 skipping new declaration
GPGPU-Sim PTX: Warning %rd3 was declared previous at sobolQRNG.1.sm_61.ptx:27 skipping new declaration
GPGPU-Sim PTX: Warning %rd4 was declared previous at sobolQRNG.1.sm_61.ptx:27 skipping new declaration
GPGPU-Sim PTX: Warning %rd5 was declared previous at sobolQRNG.1.sm_61.ptx:27 skipping new declaration
GPGPU-Sim PTX: Warning %rd6 was declared previous at sobolQRNG.1.sm_61.ptx:27 skipping new declaration
GPGPU-Sim PTX: Warning %rd7 was declared previous at sobolQRNG.1.sm_61.ptx:27 skipping new declaration
GPGPU-Sim PTX: Warning %rd8 was declared previous at sobolQRNG.1.sm_61.ptx:27 skipping new declaration
GPGPU-Sim PTX: Warning %rd9 was declared previous at sobolQRNG.1.sm_61.ptx:27 skipping new declaration
GPGPU-Sim PTX: Warning %rd10 was declared previous at sobolQRNG.1.sm_61.ptx:27 skipping new declaration
GPGPU-Sim PTX: Warning %rd11 was declared previous at sobolQRNG.1.sm_61.ptx:27 skipping new declaration
GPGPU-Sim PTX: Warning %rd12 was declared previous at sobolQRNG.1.sm_61.ptx:27 skipping new declaration
GPGPU-Sim PTX: Warning %rd13 was declared previous at sobolQRNG.1.sm_61.ptx:27 skipping new declaration
GPGPU-Sim PTX: Warning %rd14 was declared previous at sobolQRNG.1.sm_61.ptx:27 skipping new declaration
GPGPU-Sim PTX: Warning %rd15 was declared previous at sobolQRNG.1.sm_61.ptx:27 skipping new declaration
GPGPU-Sim PTX: Warning %rd16 was declared previous at sobolQRNG.1.sm_61.ptx:27 skipping new declaration
GPGPU-Sim PTX: Warning %rd17 was declared previous at sobolQRNG.1.sm_61.ptx:27 skipping new declaration
GPGPU-Sim PTX: Warning %rd18 was declared previous at sobolQRNG.1.sm_61.ptx:27 skipping new declaration
GPGPU-Sim PTX: Warning %rd19 was declared previous at sobolQRNG.1.sm_61.ptx:27 skipping new declaration
GPGPU-Sim PTX: Warning _ZZ15sobolGPU_kerneljjPjPfE1v was declared previous at sobolQRNG.1.sm_61.ptx:29 skipping new declaration
GPGPU-Sim PTX: instruction assembly for function '_Z15sobolGPU_kerneljjPjPf'...   done.
GPGPU-Sim PTX: finished parsing EMBEDDED .ptx file sobolQRNG.2.sm_70.ptx
GPGPU-Sim PTX: Parsing sobolQRNG.3.sm_75.ptx
GPGPU-Sim PTX: Warning _ZZN77_INTERNAL_55_tmpxft_000037db_00000000_8_sobol_gpu_compute_75_cpp1_ii_50d613d918cooperative_groups4__v17details17_binary_partitionINS1_15coalesced_groupEEES4_RKT_bE8fullMask was declared previous at sobolQRNG.1.sm_61.ptx:15 skipping new declaration
GPGPU-Sim PTX: Warning %p0 was declared previous at sobolQRNG.1.sm_61.ptx:24 skipping new declaration
GPGPU-Sim PTX: Warning %p1 was declared previous at sobolQRNG.1.sm_61.ptx:24 skipping new declaration
GPGPU-Sim PTX: Warning %p2 was declared previous at sobolQRNG.1.sm_61.ptx:24 skipping new declaration
GPGPU-Sim PTX: Warning %p3 was declared previous at sobolQRNG.1.sm_61.ptx:24 skipping new declaration
GPGPU-Sim PTX: Warning %p4 was declared previous at sobolQRNG.1.sm_61.ptx:24 skipping new declaration
GPGPU-Sim PTX: Warning %p5 was declared previous at sobolQRNG.1.sm_61.ptx:24 skipping new declaration
GPGPU-Sim PTX: Warning %p6 was declared previous at sobolQRNG.1.sm_61.ptx:24 skipping new declaration
GPGPU-Sim PTX: Warning %p7 was declared previous at sobolQRNG.1.sm_61.ptx:24 skipping new declaration
GPGPU-Sim PTX: Warning %p8 was declared previous at sobolQRNG.1.sm_61.ptx:24 skipping new declaration
GPGPU-Sim PTX: Warning %p9 was declared previous at sobolQRNG.1.sm_61.ptx:24 skipping new declaration
GPGPU-Sim PTX: Warning %p10 was declared previous at sobolQRNG.1.sm_61.ptx:24 skipping new declaration
GPGPU-Sim PTX: Warning %f0 was declared previous at sobolQRNG.1.sm_61.ptx:25 skipping new declaration
GPGPU-Sim PTX: Warning %f1 was declared previous at sobolQRNG.1.sm_61.ptx:25 skipping new declaration
GPGPU-Sim PTX: Warning %f2 was declared previous at sobolQRNG.1.sm_61.ptx:25 skipping new declaration
GPGPU-Sim PTX: Warning %f3 was declared previous at sobolQRNG.1.sm_61.ptx:25 skipping new declaration
GPGPU-Sim PTX: Warning %f4 was declared previous at sobolQRNG.1.sm_61.ptx:25 skipping new declaration
GPGPU-Sim PTX: Warning %r0 was declared previous at sobolQRNG.1.sm_61.ptx:26 skipping new declaration
GPGPU-Sim PTX: Warning %r1 was declared previous at sobolQRNG.1.sm_61.ptx:26 skipping new declaration
GPGPU-Sim PTX: Warning %r2 was declared previous at sobolQRNG.1.sm_61.ptx:26 skipping new declaration
GPGPU-Sim PTX: Warning %r3 was declared previous at sobolQRNG.1.sm_61.ptx:26 skipping new declaration
GPGPU-Sim PTX: Warning %r4 was declared previous at sobolQRNG.1.sm_61.ptx:26 skipping new declaration
GPGPU-Sim PTX: Warning %r5 was declared previous at sobolQRNG.1.sm_61.ptx:26 skipping new declaration
GPGPU-Sim PTX: Warning %r6 was declared previous at sobolQRNG.1.sm_61.ptx:26 skipping new declaration
GPGPU-Sim PTX: Warning %r7 was declared previous at sobolQRNG.1.sm_61.ptx:26 skipping new declaration
GPGPU-Sim PTX: Warning %r8 was declared previous at sobolQRNG.1.sm_61.ptx:26 skipping new declaration
GPGPU-Sim PTX: Warning %r9 was declared previous at sobolQRNG.1.sm_61.ptx:26 skipping new declaration
GPGPU-Sim PTX: Warning %r10 was declared previous at sobolQRNG.1.sm_61.ptx:26 skipping new declaration
GPGPU-Sim PTX: Warning %r11 was declared previous at sobolQRNG.1.sm_61.ptx:26 skipping new declaration
GPGPU-Sim PTX: Warning %r12 was declared previous at sobolQRNG.1.sm_61.ptx:26 skipping new declaration
GPGPU-Sim PTX: Warning %r13 was declared previous at sobolQRNG.1.sm_61.ptx:26 skipping new declaration
GPGPU-Sim PTX: Warning %r14 was declared previous at sobolQRNG.1.sm_61.ptx:26 skipping new declaration
GPGPU-Sim PTX: Warning %r15 was declared previous at sobolQRNG.1.sm_61.ptx:26 skipping new declaration
GPGPU-Sim PTX: Warning %r16 was declared previous at sobolQRNG.1.sm_61.ptx:26 skipping new declaration
GPGPU-Sim PTX: Warning %r17 was declared previous at sobolQRNG.1.sm_61.ptx:26 skipping new declaration
GPGPU-Sim PTX: Warning %r18 was declared previous at sobolQRNG.1.sm_61.ptx:26 skipping new declaration
GPGPU-Sim PTX: Warning %r19 was declared previous at sobolQRNG.1.sm_61.ptx:26 skipping new declaration
GPGPU-Sim PTX: Warning %r20 was declared previous at sobolQRNG.1.sm_61.ptx:26 skipping new declaration
GPGPU-Sim PTX: Warning %r21 was declared previous at sobolQRNG.1.sm_61.ptx:26 skipping new declaration
GPGPU-Sim PTX: Warning %r22 was declared previous at sobolQRNG.1.sm_61.ptx:26 skipping new declaration
GPGPU-Sim PTX: Warning %r23 was declared previous at sobolQRNG.1.sm_61.ptx:26 skipping new declaration
GPGPU-Sim PTX: Warning %r24 was declared previous at sobolQRNG.1.sm_61.ptx:26 skipping new declaration
GPGPU-Sim PTX: Warning %r25 was declared previous at sobolQRNG.1.sm_61.ptx:26 skipping new declaration
GPGPU-Sim PTX: Warning %r26 was declared previous at sobolQRNG.1.sm_61.ptx:26 skipping new declaration
GPGPU-Sim PTX: Warning %r27 was declared previous at sobolQRNG.1.sm_61.ptx:26 skipping new declaration
GPGPU-Sim PTX: Warning %r28 was declared previous at sobolQRNG.1.sm_61.ptx:26 skipping new declaration
GPGPU-Sim PTX: Warning %r29 was declared previous at sobolQRNG.1.sm_61.ptx:26 skipping new declaration
GPGPU-Sim PTX: Warning %r30 was declared previous at sobolQRNG.1.sm_61.ptx:26 skipping new declaration
GPGPU-Sim PTX: Warning %r31 was declared previous at sobolQRNG.1.sm_61.ptx:26 skipping new declaration
GPGPU-Sim PTX: Warning %r32 was declared previous at sobolQRNG.1.sm_61.ptx:26 skipping new declaration
GPGPU-Sim PTX: Warning %r33 was declared previous at sobolQRNG.1.sm_61.ptx:26 skipping new declaration
GPGPU-Sim PTX: Warning %r34 was declared previous at sobolQRNG.1.sm_61.ptx:26 skipping new declaration
GPGPU-Sim PTX: Warning %r35 was declared previous at sobolQRNG.1.sm_61.ptx:26 skipping new declaration
GPGPU-Sim PTX: Warning %r36 was declared previous at sobolQRNG.1.sm_61.ptx:26 skipping new declaration
GPGPU-Sim PTX: Warning %r37 was declared previous at sobolQRNG.1.sm_61.ptx:26 skipping new declaration
GPGPU-Sim PTX: Warning %r38 was declared previous at sobolQRNG.1.sm_61.ptx:26 skipping new declaration
GPGPU-Sim PTX: Warning %r39 was declared previous at sobolQRNG.1.sm_61.ptx:26 skipping new declaration
GPGPU-Sim PTX: Warning %r40 was declared previous at sobolQRNG.1.sm_61.ptx:26 skipping new declaration
GPGPU-Sim PTX: Warning %r41 was declared previous at sobolQRNG.1.sm_61.ptx:26 skipping new declaration
GPGPU-Sim PTX: Warning %r42 was declared previous at sobolQRNG.1.sm_61.ptx:26 skipping new declaration
GPGPU-Sim PTX: Warning %r43 was declared previous at sobolQRNG.1.sm_61.ptx:26 skipping new declaration
GPGPU-Sim PTX: Warning %r44 was declared previous at sobolQRNG.1.sm_61.ptx:26 skipping new declaration
GPGPU-Sim PTX: Warning %r45 was declared previous at sobolQRNG.1.sm_61.ptx:26 skipping new declaration
GPGPU-Sim PTX: Warning %r46 was declared previous at sobolQRNG.1.sm_61.ptx:26 skipping new declaration
GPGPU-Sim PTX: Warning %r47 was declared previous at sobolQRNG.1.sm_61.ptx:26 skipping new declaration
GPGPU-Sim PTX: Warning %r48 was declared previous at sobolQRNG.1.sm_61.ptx:26 skipping new declaration
GPGPU-Sim PTX: Warning %r49 was declared previous at sobolQRNG.1.sm_61.ptx:26 skipping new declaration
GPGPU-Sim PTX: Warning %r50 was declared previous at sobolQRNG.1.sm_61.ptx:26 skipping new declaration
GPGPU-Sim PTX: Warning %r51 was declared previous at sobolQRNG.1.sm_61.ptx:26 skipping new declaration
GPGPU-Sim PTX: Warning %r52 was declared previous at sobolQRNG.1.sm_61.ptx:26 skipping new declaration
GPGPU-Sim PTX: Warning %r53 was declared previous at sobolQRNG.1.sm_61.ptx:26 skipping new declaration
GPGPU-Sim PTX: Warning %r54 was declared previous at sobolQRNG.1.sm_61.ptx:26 skipping new declaration
GPGPU-Sim PTX: Warning %r55 was declared previous at sobolQRNG.1.sm_61.ptx:26 skipping new declaration
GPGPU-Sim PTX: Warning %r56 was declared previous at sobolQRNG.1.sm_61.ptx:26 skipping new declaration
GPGPU-Sim PTX: Warning %r57 was declared previous at sobolQRNG.1.sm_61.ptx:26 skipping new declaration
GPGPU-Sim PTX: Warning %r58 was declared previous at sobolQRNG.1.sm_61.ptx:26 skipping new declaration
GPGPU-Sim PTX: Warning %r59 was declared previous at sobolQRNG.1.sm_61.ptx:26 skipping new declaration
GPGPU-Sim PTX: Warning %r60 was declared previous at sobolQRNG.1.sm_61.ptx:26 skipping new declaration
GPGPU-Sim PTX: Warning %r61 was declared previous at sobolQRNG.1.sm_61.ptx:26 skipping new declaration
GPGPU-Sim PTX: Warning %r62 was declared previous at sobolQRNG.1.sm_61.ptx:26 skipping new declaration
GPGPU-Sim PTX: Warning %r63 was declared previous at sobolQRNG.1.sm_61.ptx:26 skipping new declaration
GPGPU-Sim PTX: Warning %r64 was declared previous at sobolQRNG.1.sm_61.ptx:26 skipping new declaration
GPGPU-Sim PTX: Warning %r65 was declared previous at sobolQRNG.1.sm_61.ptx:26 skipping new declaration
GPGPU-Sim PTX: Warning %r66 was declared previous at sobolQRNG.1.sm_61.ptx:26 skipping new declaration
GPGPU-Sim PTX: Warning %r67 was declared previous at sobolQRNG.1.sm_61.ptx:26 skipping new declaration
GPGPU-Sim PTX: Warning %r68 was declared previous at sobolQRNG.1.sm_61.ptx:26 skipping new declaration
GPGPU-Sim PTX: Warning %r69 was declared previous at sobolQRNG.1.sm_61.ptx:26 skipping new declaration
GPGPU-Sim PTX: Warning %r70 was declared previous at sobolQRNG.1.sm_61.ptx:26 skipping new declaration
GPGPU-Sim PTX: Warning %r71 was declared previous at sobolQRNG.1.sm_61.ptx:26 skipping new declaration
GPGPU-Sim PTX: Warning %r72 was declared previous at sobolQRNG.1.sm_61.ptx:26 skipping new declaration
GPGPU-Sim PTX: Warning %r73 was declared previous at sobolQRNG.1.sm_61.ptx:26 skipping new declaration
GPGPU-Sim PTX: Warning %r74 was declared previous at sobolQRNG.1.sm_61.ptx:26 skipping new declaration
GPGPU-Sim PTX: Warning %r75 was declared previous at sobolQRNG.1.sm_61.ptx:26 skipping new declaration
GPGPU-Sim PTX: Warning %r76 was declared previous at sobolQRNG.1.sm_61.ptx:26 skipping new declaration
GPGPU-Sim PTX: Warning %r77 was declared previous at sobolQRNG.1.sm_61.ptx:26 skipping new declaration
GPGPU-Sim PTX: Warning %r78 was declared previous at sobolQRNG.1.sm_61.ptx:26 skipping new declaration
GPGPU-Sim PTX: Warning %r79 was declared previous at sobolQRNG.1.sm_61.ptx:26 skipping new declaration
GPGPU-Sim PTX: Warning %r80 was declared previous at sobolQRNG.1.sm_61.ptx:26 skipping new declaration
GPGPU-Sim PTX: Warning %r81 was declared previous at sobolQRNG.1.sm_61.ptx:26 skipping new declaration
GPGPU-Sim PTX: Warning %r82 was declared previous at sobolQRNG.1.sm_61.ptx:26 skipping new declaration
GPGPU-Sim PTX: Warning %r83 was declared previous at sobolQRNG.1.sm_61.ptx:26 skipping new declaration
GPGPU-Sim PTX: Warning %r84 was declared previous at sobolQRNG.1.sm_61.ptx:26 skipping new declaration
GPGPU-Sim PTX: Warning %r85 was declared previous at sobolQRNG.1.sm_61.ptx:26 skipping new declaration
GPGPU-Sim PTX: Warning %r86 was declared previous at sobolQRNG.1.sm_61.ptx:26 skipping new declaration
GPGPU-Sim PTX: Warning %r87 was declared previous at sobolQRNG.1.sm_61.ptx:26 skipping new declaration
GPGPU-Sim PTX: Warning %r88 was declared previous at sobolQRNG.1.sm_61.ptx:26 skipping new declaration
GPGPU-Sim PTX: Warning %r89 was declared previous at sobolQRNG.1.sm_61.ptx:26 skipping new declaration
GPGPU-Sim PTX: Warning %r90 was declared previous at sobolQRNG.1.sm_61.ptx:26 skipping new declaration
GPGPU-Sim PTX: Warning %r91 was declared previous at sobolQRNG.1.sm_61.ptx:26 skipping new declaration
GPGPU-Sim PTX: Warning %r92 was declared previous at sobolQRNG.1.sm_61.ptx:26 skipping new declaration
GPGPU-Sim PTX: Warning %r93 was declared previous at sobolQRNG.1.sm_61.ptx:26 skipping new declaration
GPGPU-Sim PTX: Warning %r94 was declared previous at sobolQRNG.1.sm_61.ptx:26 skipping new declaration
GPGPU-Sim PTX: Warning %r95 was declared previous at sobolQRNG.1.sm_61.ptx:26 skipping new declaration
GPGPU-Sim PTX: Warning %r96 was declared previous at sobolQRNG.1.sm_61.ptx:26 skipping new declaration
GPGPU-Sim PTX: Warning %r97 was declared previous at sobolQRNG.1.sm_61.ptx:26 skipping new declaration
GPGPU-Sim PTX: Warning %r98 was declared previous at sobolQRNG.1.sm_61.ptx:26 skipping new declaration
GPGPU-Sim PTX: Warning %r99 was declared previous at sobolQRNG.1.sm_61.ptx:26 skipping new declaration
GPGPU-Sim PTX: Warning %r100 was declared previous at sobolQRNG.1.sm_61.ptx:26 skipping new declaration
GPGPU-Sim PTX: Warning %r101 was declared previous at sobolQRNG.1.sm_61.ptx:26 skipping new declaration
GPGPU-Sim PTX: Warning %r102 was declared previous at sobolQRNG.1.sm_61.ptx:26 skipping new declaration
GPGPU-Sim PTX: Warning %r103 was declared previous at sobolQRNG.1.sm_61.ptx:26 skipping new declaration
GPGPU-Sim PTX: Warning %r104 was declared previous at sobolQRNG.1.sm_61.ptx:26 skipping new declaration
GPGPU-Sim PTX: Warning %r105 was declared previous at sobolQRNG.1.sm_61.ptx:26 skipping new declaration
GPGPU-Sim PTX: Warning %r106 was declared previous at sobolQRNG.1.sm_61.ptx:26 skipping new declaration
GPGPU-Sim PTX: Warning %r107 was declared previous at sobolQRNG.1.sm_61.ptx:26 skipping new declaration
GPGPU-Sim PTX: Warning %r108 was declared previous at sobolQRNG.1.sm_61.ptx:26 skipping new declaration
GPGPU-Sim PTX: Warning %r109 was declared previous at sobolQRNG.1.sm_61.ptx:26 skipping new declaration
GPGPU-Sim PTX: Warning %r110 was declared previous at sobolQRNG.1.sm_61.ptx:26 skipping new declaration
GPGPU-Sim PTX: Warning %r111 was declared previous at sobolQRNG.1.sm_61.ptx:26 skipping new declaration
GPGPU-Sim PTX: Warning %r112 was declared previous at sobolQRNG.1.sm_61.ptx:26 skipping new declaration
GPGPU-Sim PTX: Warning %r113 was declared previous at sobolQRNG.1.sm_61.ptx:26 skipping new declaration
GPGPU-Sim PTX: Warning %r114 was declared previous at sobolQRNG.1.sm_61.ptx:26 skipping new declaration
GPGPU-Sim PTX: Warning %r115 was declared previous at sobolQRNG.1.sm_61.ptx:26 skipping new declaration
GPGPU-Sim PTX: Warning %r116 was declared previous at sobolQRNG.1.sm_61.ptx:26 skipping new declaration
GPGPU-Sim PTX: Warning %r117 was declared previous at sobolQRNG.1.sm_61.ptx:26 skipping new declaration
GPGPU-Sim PTX: Warning %r118 was declared previous at sobolQRNG.1.sm_61.ptx:26 skipping new declaration
GPGPU-Sim PTX: Warning %r119 was declared previous at sobolQRNG.1.sm_61.ptx:26 skipping new declaration
GPGPU-Sim PTX: Warning %r120 was declared previous at sobolQRNG.1.sm_61.ptx:26 skipping new declaration
GPGPU-Sim PTX: Warning %r121 was declared previous at sobolQRNG.1.sm_61.ptx:26 skipping new declaration
GPGPU-Sim PTX: Warning %r122 was declared previous at sobolQRNG.1.sm_61.ptx:26 skipping new declaration
GPGPU-Sim PTX: Warning %r123 was declared previous at sobolQRNG.1.sm_61.ptx:26 skipping new declaration
GPGPU-Sim PTX: Warning %r124 was declared previous at sobolQRNG.1.sm_61.ptx:26 skipping new declaration
GPGPU-Sim PTX: Warning %r125 was declared previous at sobolQRNG.1.sm_61.ptx:26 skipping new declaration
GPGPU-Sim PTX: Warning %r126 was declared previous at sobolQRNG.1.sm_61.ptx:26 skipping new declaration
GPGPU-Sim PTX: Warning %r127 was declared previous at sobolQRNG.1.sm_61.ptx:26 skipping new declaration
GPGPU-Sim PTX: Warning %r128 was declared previous at sobolQRNG.1.sm_61.ptx:26 skipping new declaration
GPGPU-Sim PTX: Warning %r129 was declared previous at sobolQRNG.1.sm_61.ptx:26 skipping new declaration
GPGPU-Sim PTX: Warning %r130 was declared previous at sobolQRNG.1.sm_61.ptx:26 skipping new declaration
GPGPU-Sim PTX: Warning %r131 was declared previous at sobolQRNG.1.sm_61.ptx:26 skipping new declaration
GPGPU-Sim PTX: Warning %r132 was declared previous at sobolQRNG.1.sm_61.ptx:26 skipping new declaration
GPGPU-Sim PTX: Warning %r133 was declared previous at sobolQRNG.1.sm_61.ptx:26 skipping new declaration
GPGPU-Sim PTX: Warning %r134 was declared previous at sobolQRNG.1.sm_61.ptx:26 skipping new declaration
GPGPU-Sim PTX: Warning %r135 was declared previous at sobolQRNG.1.sm_61.ptx:26 skipping new declaration
GPGPU-Sim PTX: Warning %r136 was declared previous at sobolQRNG.1.sm_61.ptx:26 skipping new declaration
GPGPU-Sim PTX: Warning %r137 was declared previous at sobolQRNG.1.sm_61.ptx:26 skipping new declaration
GPGPU-Sim PTX: Warning %r138 was declared previous at sobolQRNG.1.sm_61.ptx:26 skipping new declaration
GPGPU-Sim PTX: Warning %r139 was declared previous at sobolQRNG.1.sm_61.ptx:26 skipping new declaration
GPGPU-Sim PTX: Warning %r140 was declared previous at sobolQRNG.1.sm_61.ptx:26 skipping new declaration
GPGPU-Sim PTX: Warning %r141 was declared previous at sobolQRNG.1.sm_61.ptx:26 skipping new declaration
GPGPU-Sim PTX: Warning %r142 was declared previous at sobolQRNG.1.sm_61.ptx:26 skipping new declaration
GPGPU-Sim PTX: Warning %r143 was declared previous at sobolQRNG.1.sm_61.ptx:26 skipping new declaration
GPGPU-Sim PTX: Warning %r144 was declared previous at sobolQRNG.1.sm_61.ptx:26 skipping new declaration
GPGPU-Sim PTX: Warning %r145 was declared previous at sobolQRNG.1.sm_61.ptx:26 skipping new declaration
GPGPU-Sim PTX: Warning %r146 was declared previous at sobolQRNG.1.sm_61.ptx:26 skipping new declaration
GPGPU-Sim PTX: Warning %r147 was declared previous at sobolQRNG.1.sm_61.ptx:26 skipping new declaration
GPGPU-Sim PTX: Warning %r148 was declared previous at sobolQRNG.1.sm_61.ptx:26 skipping new declaration
GPGPU-Sim PTX: Warning %r149 was declared previous at sobolQRNG.1.sm_61.ptx:26 skipping new declaration
GPGPU-Sim PTX: Warning %r150 was declared previous at sobolQRNG.1.sm_61.ptx:26 skipping new declaration
GPGPU-Sim PTX: Warning %rd0 was declared previous at sobolQRNG.1.sm_61.ptx:27 skipping new declaration
GPGPU-Sim PTX: Warning %rd1 was declared previous at sobolQRNG.1.sm_61.ptx:27 skipping new declaration
GPGPU-Sim PTX: Warning %rd2 was declared previous at sobolQRNG.1.sm_61.ptx:27 skipping new declaration
GPGPU-Sim PTX: Warning %rd3 was declared previous at sobolQRNG.1.sm_61.ptx:27 skipping new declaration
GPGPU-Sim PTX: Warning %rd4 was declared previous at sobolQRNG.1.sm_61.ptx:27 skipping new declaration
GPGPU-Sim PTX: Warning %rd5 was declared previous at sobolQRNG.1.sm_61.ptx:27 skipping new declaration
GPGPU-Sim PTX: Warning %rd6 was declared previous at sobolQRNG.1.sm_61.ptx:27 skipping new declaration
GPGPU-Sim PTX: Warning %rd7 was declared previous at sobolQRNG.1.sm_61.ptx:27 skipping new declaration
GPGPU-Sim PTX: Warning %rd8 was declared previous at sobolQRNG.1.sm_61.ptx:27 skipping new declaration
GPGPU-Sim PTX: Warning %rd9 was declared previous at sobolQRNG.1.sm_61.ptx:27 skipping new declaration
GPGPU-Sim PTX: Warning %rd10 was declared previous at sobolQRNG.1.sm_61.ptx:27 skipping new declaration
GPGPU-Sim PTX: Warning %rd11 was declared previous at sobolQRNG.1.sm_61.ptx:27 skipping new declaration
GPGPU-Sim PTX: Warning %rd12 was declared previous at sobolQRNG.1.sm_61.ptx:27 skipping new declaration
GPGPU-Sim PTX: Warning %rd13 was declared previous at sobolQRNG.1.sm_61.ptx:27 skipping new declaration
GPGPU-Sim PTX: Warning %rd14 was declared previous at sobolQRNG.1.sm_61.ptx:27 skipping new declaration
GPGPU-Sim PTX: Warning %rd15 was declared previous at sobolQRNG.1.sm_61.ptx:27 skipping new declaration
GPGPU-Sim PTX: Warning %rd16 was declared previous at sobolQRNG.1.sm_61.ptx:27 skipping new declaration
GPGPU-Sim PTX: Warning %rd17 was declared previous at sobolQRNG.1.sm_61.ptx:27 skipping new declaration
GPGPU-Sim PTX: Warning %rd18 was declared previous at sobolQRNG.1.sm_61.ptx:27 skipping new declaration
GPGPU-Sim PTX: Warning %rd19 was declared previous at sobolQRNG.1.sm_61.ptx:27 skipping new declaration
GPGPU-Sim PTX: Warning _ZZ15sobolGPU_kerneljjPjPfE1v was declared previous at sobolQRNG.1.sm_61.ptx:29 skipping new declaration
GPGPU-Sim PTX: instruction assembly for function '_Z15sobolGPU_kerneljjPjPf'...   done.
GPGPU-Sim PTX: finished parsing EMBEDDED .ptx file sobolQRNG.3.sm_75.ptx
GPGPU-Sim PTX: loading globals with explicit initializers... 
GPGPU-Sim PTX:     initializing '_ZZN77_INTERNAL_55_tmpxft_000037db_00000000_8_sobol_gpu_compute_75_cpp1_ii_50d613d918cooperative_groups4__v17details17_binary_partitionINS1_15coalesced_groupEEES4_RKT_bE8fullMask' ...  wrote 4 bytes
GPGPU-Sim PTX: finished loading globals (4 bytes total).
GPGPU-Sim PTX: loading constants with explicit initializers...  done.
GPGPU-Sim PTX: Loading PTXInfo from sobolQRNG.1.sm_61.ptx
GPGPU-Sim PTX: Kernel '_Z15sobolGPU_kerneljjPjPf' : regs=21, lmem=0, smem=128, cmem=344
GPGPU-Sim PTX: Loading PTXInfo from sobolQRNG.2.sm_70.ptx
GPGPU-Sim PTX: Kernel '_Z15sobolGPU_kerneljjPjPf' : regs=25, lmem=0, smem=128, cmem=376
GPGPU-Sim PTX: Loading PTXInfo from sobolQRNG.3.sm_75.ptx
GPGPU-Sim PTX: Kernel '_Z15sobolGPU_kerneljjPjPf' : regs=27, lmem=0, smem=128, cmem=376
self exe links to: /home/htran197/accel-sim-framework/util/accelwattch/accelwattch_benchmarks/validation/sobolQRNG
self exe links to: /home/htran197/accel-sim-framework/util/accelwattch/accelwattch_benchmarks/validation/sobolQRNG
11.0
GPGPU-Sim PTX: __cudaRegisterFatBinary, fat_cubin_handle = 2, filename=default
GPGPU-Sim PTX: __cudaRegisterFunction __nv_static_51__38_cuda_device_runtime_compute_80_cpp1_ii_8b1a5d37__Z16memcpy_3d_deviceImLi1ELi1ELi1EEvPKhPhT_S3_S3_S3_S3_S3_S3_jjjjjjjjS3_S1_S2_ : hostFun 0x0x55713bd1f4b0, fat_cubin_handle = 2
Warning: cannot find deviceFun __nv_static_51__38_cuda_device_runtime_compute_80_cpp1_ii_8b1a5d37__Z16memcpy_3d_deviceImLi1ELi1ELi1EEvPKhPhT_S3_S3_S3_S3_S3_S3_jjjjjjjjS3_S1_S2_
GPGPU-Sim PTX: __cudaRegisterFunction __nv_static_51__38_cuda_device_runtime_compute_80_cpp1_ii_8b1a5d37__Z16memcpy_3d_deviceImLi1ELi1ELi0EEvPKhPhT_S3_S3_S3_S3_S3_S3_jjjjjjjjS3_S1_S2_ : hostFun 0x0x55713bd1f210, fat_cubin_handle = 2
Warning: cannot find deviceFun __nv_static_51__38_cuda_device_runtime_compute_80_cpp1_ii_8b1a5d37__Z16memcpy_3d_deviceImLi1ELi1ELi0EEvPKhPhT_S3_S3_S3_S3_S3_S3_jjjjjjjjS3_S1_S2_
GPGPU-Sim PTX: __cudaRegisterFunction __nv_static_51__38_cuda_device_runtime_compute_80_cpp1_ii_8b1a5d37__Z16memcpy_3d_deviceImLi1ELi0ELi1EEvPKhPhT_S3_S3_S3_S3_S3_S3_jjjjjjjjS3_S1_S2_ : hostFun 0x0x55713bd1ef70, fat_cubin_handle = 2
Warning: cannot find deviceFun __nv_static_51__38_cuda_device_runtime_compute_80_cpp1_ii_8b1a5d37__Z16memcpy_3d_deviceImLi1ELi0ELi1EEvPKhPhT_S3_S3_S3_S3_S3_S3_jjjjjjjjS3_S1_S2_
GPGPU-Sim PTX: __cudaRegisterFunction __nv_static_51__38_cuda_device_runtime_compute_80_cpp1_ii_8b1a5d37__Z16memcpy_3d_deviceImLi1ELi0ELi0EEvPKhPhT_S3_S3_S3_S3_S3_S3_jjjjjjjjS3_S1_S2_ : hostFun 0x0x55713bd1ecd0, fat_cubin_handle = 2
Warning: cannot find deviceFun __nv_static_51__38_cuda_device_runtime_compute_80_cpp1_ii_8b1a5d37__Z16memcpy_3d_deviceImLi1ELi0ELi0EEvPKhPhT_S3_S3_S3_S3_S3_S3_jjjjjjjjS3_S1_S2_
GPGPU-Sim PTX: __cudaRegisterFunction __nv_static_51__38_cuda_device_runtime_compute_80_cpp1_ii_8b1a5d37__Z16memcpy_3d_deviceImLi0ELi1ELi1EEvPKhPhT_S3_S3_S3_S3_S3_S3_jjjjjjjjS3_S1_S2_ : hostFun 0x0x55713bd1ea30, fat_cubin_handle = 2
Warning: cannot find deviceFun __nv_static_51__38_cuda_device_runtime_compute_80_cpp1_ii_8b1a5d37__Z16memcpy_3d_deviceImLi0ELi1ELi1EEvPKhPhT_S3_S3_S3_S3_S3_S3_jjjjjjjjS3_S1_S2_
GPGPU-Sim PTX: __cudaRegisterFunction __nv_static_51__38_cuda_device_runtime_compute_80_cpp1_ii_8b1a5d37__Z16memcpy_3d_deviceImLi0ELi1ELi0EEvPKhPhT_S3_S3_S3_S3_S3_S3_jjjjjjjjS3_S1_S2_ : hostFun 0x0x55713bd1e790, fat_cubin_handle = 2
Warning: cannot find deviceFun __nv_static_51__38_cuda_device_runtime_compute_80_cpp1_ii_8b1a5d37__Z16memcpy_3d_deviceImLi0ELi1ELi0EEvPKhPhT_S3_S3_S3_S3_S3_S3_jjjjjjjjS3_S1_S2_
GPGPU-Sim PTX: __cudaRegisterFunction __nv_static_51__38_cuda_device_runtime_compute_80_cpp1_ii_8b1a5d37__Z16memcpy_3d_deviceImLi0ELi0ELi1EEvPKhPhT_S3_S3_S3_S3_S3_S3_jjjjjjjjS3_S1_S2_ : hostFun 0x0x55713bd1e4f0, fat_cubin_handle = 2
Warning: cannot find deviceFun __nv_static_51__38_cuda_device_runtime_compute_80_cpp1_ii_8b1a5d37__Z16memcpy_3d_deviceImLi0ELi0ELi1EEvPKhPhT_S3_S3_S3_S3_S3_S3_jjjjjjjjS3_S1_S2_
GPGPU-Sim PTX: __cudaRegisterFunction __nv_static_51__38_cuda_device_runtime_compute_80_cpp1_ii_8b1a5d37__Z16memcpy_3d_deviceImLi0ELi0ELi0EEvPKhPhT_S3_S3_S3_S3_S3_S3_jjjjjjjjS3_S1_S2_ : hostFun 0x0x55713bd1e250, fat_cubin_handle = 2
Warning: cannot find deviceFun __nv_static_51__38_cuda_device_runtime_compute_80_cpp1_ii_8b1a5d37__Z16memcpy_3d_deviceImLi0ELi0ELi0EEvPKhPhT_S3_S3_S3_S3_S3_S3_jjjjjjjjS3_S1_S2_
GPGPU-Sim PTX: __cudaRegisterFunction __nv_static_51__38_cuda_device_runtime_compute_80_cpp1_ii_8b1a5d37__Z16memcpy_3d_deviceIjLi1ELi1ELi1EEvPKhPhT_S3_S3_S3_S3_S3_S3_jjjjjjjjS3_S1_S2_ : hostFun 0x0x55713bd1dfd0, fat_cubin_handle = 2
Warning: cannot find deviceFun __nv_static_51__38_cuda_device_runtime_compute_80_cpp1_ii_8b1a5d37__Z16memcpy_3d_deviceIjLi1ELi1ELi1EEvPKhPhT_S3_S3_S3_S3_S3_S3_jjjjjjjjS3_S1_S2_
GPGPU-Sim PTX: __cudaRegisterFunction __nv_static_51__38_cuda_device_runtime_compute_80_cpp1_ii_8b1a5d37__Z16memcpy_3d_deviceIjLi1ELi1ELi0EEvPKhPhT_S3_S3_S3_S3_S3_S3_jjjjjjjjS3_S1_S2_ : hostFun 0x0x55713bd1dd50, fat_cubin_handle = 2
Warning: cannot find deviceFun __nv_static_51__38_cuda_device_runtime_compute_80_cpp1_ii_8b1a5d37__Z16memcpy_3d_deviceIjLi1ELi1ELi0EEvPKhPhT_S3_S3_S3_S3_S3_S3_jjjjjjjjS3_S1_S2_
GPGPU-Sim PTX: __cudaRegisterFunction __nv_static_51__38_cuda_device_runtime_compute_80_cpp1_ii_8b1a5d37__Z16memcpy_3d_deviceIjLi1ELi0ELi1EEvPKhPhT_S3_S3_S3_S3_S3_S3_jjjjjjjjS3_S1_S2_ : hostFun 0x0x55713bd1dad0, fat_cubin_handle = 2
Warning: cannot find deviceFun __nv_static_51__38_cuda_device_runtime_compute_80_cpp1_ii_8b1a5d37__Z16memcpy_3d_deviceIjLi1ELi0ELi1EEvPKhPhT_S3_S3_S3_S3_S3_S3_jjjjjjjjS3_S1_S2_
GPGPU-Sim PTX: __cudaRegisterFunction __nv_static_51__38_cuda_device_runtime_compute_80_cpp1_ii_8b1a5d37__Z16memcpy_3d_deviceIjLi1ELi0ELi0EEvPKhPhT_S3_S3_S3_S3_S3_S3_jjjjjjjjS3_S1_S2_ : hostFun 0x0x55713bd1d850, fat_cubin_handle = 2
Warning: cannot find deviceFun __nv_static_51__38_cuda_device_runtime_compute_80_cpp1_ii_8b1a5d37__Z16memcpy_3d_deviceIjLi1ELi0ELi0EEvPKhPhT_S3_S3_S3_S3_S3_S3_jjjjjjjjS3_S1_S2_
GPGPU-Sim PTX: __cudaRegisterFunction __nv_static_51__38_cuda_device_runtime_compute_80_cpp1_ii_8b1a5d37__Z16memcpy_3d_deviceIjLi0ELi1ELi1EEvPKhPhT_S3_S3_S3_S3_S3_S3_jjjjjjjjS3_S1_S2_ : hostFun 0x0x55713bd1d5d0, fat_cubin_handle = 2
Warning: cannot find deviceFun __nv_static_51__38_cuda_device_runtime_compute_80_cpp1_ii_8b1a5d37__Z16memcpy_3d_deviceIjLi0ELi1ELi1EEvPKhPhT_S3_S3_S3_S3_S3_S3_jjjjjjjjS3_S1_S2_
GPGPU-Sim PTX: __cudaRegisterFunction __nv_static_51__38_cuda_device_runtime_compute_80_cpp1_ii_8b1a5d37__Z16memcpy_3d_deviceIjLi0ELi1ELi0EEvPKhPhT_S3_S3_S3_S3_S3_S3_jjjjjjjjS3_S1_S2_ : hostFun 0x0x55713bd1d350, fat_cubin_handle = 2
Warning: cannot find deviceFun __nv_static_51__38_cuda_device_runtime_compute_80_cpp1_ii_8b1a5d37__Z16memcpy_3d_deviceIjLi0ELi1ELi0EEvPKhPhT_S3_S3_S3_S3_S3_S3_jjjjjjjjS3_S1_S2_
GPGPU-Sim PTX: __cudaRegisterFunction __nv_static_51__38_cuda_device_runtime_compute_80_cpp1_ii_8b1a5d37__Z16memcpy_3d_deviceIjLi0ELi0ELi1EEvPKhPhT_S3_S3_S3_S3_S3_S3_jjjjjjjjS3_S1_S2_ : hostFun 0x0x55713bd1d0d0, fat_cubin_handle = 2
Warning: cannot find deviceFun __nv_static_51__38_cuda_device_runtime_compute_80_cpp1_ii_8b1a5d37__Z16memcpy_3d_deviceIjLi0ELi0ELi1EEvPKhPhT_S3_S3_S3_S3_S3_S3_jjjjjjjjS3_S1_S2_
GPGPU-Sim PTX: __cudaRegisterFunction __nv_static_51__38_cuda_device_runtime_compute_80_cpp1_ii_8b1a5d37__Z16memcpy_3d_deviceIjLi0ELi0ELi0EEvPKhPhT_S3_S3_S3_S3_S3_S3_jjjjjjjjS3_S1_S2_ : hostFun 0x0x55713bd1ce50, fat_cubin_handle = 2
Warning: cannot find deviceFun __nv_static_51__38_cuda_device_runtime_compute_80_cpp1_ii_8b1a5d37__Z16memcpy_3d_deviceIjLi0ELi0ELi0EEvPKhPhT_S3_S3_S3_S3_S3_S3_jjjjjjjjS3_S1_S2_
GPGPU-Sim PTX: __cudaRegisterFunction __nv_static_51__38_cuda_device_runtime_compute_80_cpp1_ii_8b1a5d37__Z16memset_3d_deviceImLi1ELi1ELi1EEvPhhjT_S1_S1_S1_S1_jjjjjjjS1_S0_ : hostFun 0x0x55713bd1cc00, fat_cubin_handle = 2
Warning: cannot find deviceFun __nv_static_51__38_cuda_device_runtime_compute_80_cpp1_ii_8b1a5d37__Z16memset_3d_deviceImLi1ELi1ELi1EEvPhhjT_S1_S1_S1_S1_jjjjjjjS1_S0_
GPGPU-Sim PTX: __cudaRegisterFunction __nv_static_51__38_cuda_device_runtime_compute_80_cpp1_ii_8b1a5d37__Z16memset_3d_deviceImLi1ELi1ELi0EEvPhhjT_S1_S1_S1_S1_jjjjjjjS1_S0_ : hostFun 0x0x55713bd1c9b0, fat_cubin_handle = 2
Warning: cannot find deviceFun __nv_static_51__38_cuda_device_runtime_compute_80_cpp1_ii_8b1a5d37__Z16memset_3d_deviceImLi1ELi1ELi0EEvPhhjT_S1_S1_S1_S1_jjjjjjjS1_S0_
GPGPU-Sim PTX: __cudaRegisterFunction __nv_static_51__38_cuda_device_runtime_compute_80_cpp1_ii_8b1a5d37__Z16memset_3d_deviceImLi1ELi0ELi1EEvPhhjT_S1_S1_S1_S1_jjjjjjjS1_S0_ : hostFun 0x0x55713bd1c760, fat_cubin_handle = 2
Warning: cannot find deviceFun __nv_static_51__38_cuda_device_runtime_compute_80_cpp1_ii_8b1a5d37__Z16memset_3d_deviceImLi1ELi0ELi1EEvPhhjT_S1_S1_S1_S1_jjjjjjjS1_S0_
GPGPU-Sim PTX: __cudaRegisterFunction __nv_static_51__38_cuda_device_runtime_compute_80_cpp1_ii_8b1a5d37__Z16memset_3d_deviceImLi1ELi0ELi0EEvPhhjT_S1_S1_S1_S1_jjjjjjjS1_S0_ : hostFun 0x0x55713bd1c510, fat_cubin_handle = 2
Warning: cannot find deviceFun __nv_static_51__38_cuda_device_runtime_compute_80_cpp1_ii_8b1a5d37__Z16memset_3d_deviceImLi1ELi0ELi0EEvPhhjT_S1_S1_S1_S1_jjjjjjjS1_S0_
[...]

------------------------------------------------------------------------

Row_Buffer_Locality = 0.091176
Row_Buffer_Locality_read = -nan
Row_Buffer_Locality_write = 0.091176
Bank_Level_Parallism = 1.858030
Bank_Level_Parallism_Col = 1.370738
Bank_Level_Parallism_Ready = 1.112005
write_to_read_ratio_blp_rw_average = 1.000000
GrpLevelPara = 1.276200 

BW Util details:
bwutil = 0.233238 
total_CMD = 817841 
util_bw = 190752 
Wasted_Col = 210853 
Wasted_Row = 132027 
Idle = 284209 

BW Util Bottlenecks: 
RCDc_limit = 0 
RCDWRc_limit = 138163 
WTRc_limit = 0 
RTWc_limit = 0 
CCDLc_limit = 124979 
rwq = 0 
CCDLc_limit_alone = 124979 
WTRc_limit_alone = 0 
RTWc_limit_alone = 0 

Commands details: 
total_CMD = 817841 
n_nop = 680953 
Read = 0 
Write = 0 
L2_Alloc = 0 
L2_WB = 95376 
n_act = 21670 
n_pre = 21654 
n_ref = 0 
n_req = 23844 
total_req = 95376 

Dual Bus Interface Util: 
issued_total_row = 43324 
issued_total_col = 95376 
Row_Bus_Util =  0.052974 
CoL_Bus_Util = 0.116619 
Either_Row_CoL_Bus_Util = 0.167377 
Issued_on_Two_Bus_Simul_Util = 0.002216 
issued_two_Eff = 0.013237 
queue_avg = 0.094317 


dram_util_bins: 0 0 0 0 0 0 0 0 0 0
dram_eff_bins: 0 0 0 0 0 0 0 0 0 0
mrqq: max=6 avg=0.0943166
Memory Partition 7: 
Cache L2_bank_014:
MSHR contents

Cache L2_bank_015:
MSHR contents

In Dram Latency Queue (total = 0): 
DRAM[7]: 16 bks, busW=4 BL=8 CL=16, tRRD=8 tCCD=2, tRCD=16 tRAS=37 tRP=16 tRC=52
n_cmd=817841 n_nop=679142 n_act=21916 n_pre=21900 n_ref_event=0 n_req=24180 n_rd=0 n_rd_L2_A=0 n_write=0 n_wr_bk=96720 bw_util=0.2365
n_activity=633048 dram_eff=0.3056
bk0: 0a 753141i bk1: 0a 752454i bk2: 0a 755362i bk3: 0a 756839i bk4: 0a 762957i bk5: 0a 762946i bk6: 0a 761647i bk7: 0a 762157i bk8: 0a 757484i bk9: 0a 756704i bk10: 0a 754637i bk11: 0a 752602i bk12: 0a 753074i bk13: 0a 751056i bk14: 0a 749998i bk15: 0a 751640i 

------------------------------------------------------------------------

Row_Buffer_Locality = 0.093631
Row_Buffer_Locality_read = -nan
Row_Buffer_Locality_write = 0.093631
Bank_Level_Parallism = 1.860423
Bank_Level_Parallism_Col = 1.376431
Bank_Level_Parallism_Ready = 1.114378
write_to_read_ratio_blp_rw_average = 1.000000
GrpLevelPara = 1.282421 

BW Util details:
bwutil = 0.236525 
total_CMD = 817841 
util_bw = 193440 
Wasted_Col = 212384 
Wasted_Row = 134718 
Idle = 277299 

BW Util Bottlenecks: 
RCDc_limit = 0 
RCDWRc_limit = 139587 
WTRc_limit = 0 
RTWc_limit = 0 
CCDLc_limit = 124806 
rwq = 0 
CCDLc_limit_alone = 124806 
WTRc_limit_alone = 0 
RTWc_limit_alone = 0 

Commands details: 
total_CMD = 817841 
n_nop = 679142 
Read = 0 
Write = 0 
L2_Alloc = 0 
L2_WB = 96720 
n_act = 21916 
n_pre = 21900 
n_ref = 0 
n_req = 24180 
total_req = 96720 

Dual Bus Interface Util: 
issued_total_row = 43816 
issued_total_col = 96720 
Row_Bus_Util =  0.053575 
CoL_Bus_Util = 0.118263 
Either_Row_CoL_Bus_Util = 0.169592 
Issued_on_Two_Bus_Simul_Util = 0.002246 
issued_two_Eff = 0.013245 
queue_avg = 0.095949 


dram_util_bins: 0 0 0 0 0 0 0 0 0 0
dram_eff_bins: 0 0 0 0 0 0 0 0 0 0
mrqq: max=4 avg=0.095949
Memory Partition 8: 
Cache L2_bank_016:
MSHR contents

Cache L2_bank_017:
MSHR contents

In Dram Latency Queue (total = 0): 
DRAM[8]: 16 bks, busW=4 BL=8 CL=16, tRRD=8 tCCD=2, tRCD=16 tRAS=37 tRP=16 tRC=52
n_cmd=817841 n_nop=680681 n_act=21690 n_pre=21674 n_ref_event=0 n_req=23926 n_rd=0 n_rd_L2_A=0 n_write=0 n_wr_bk=95704 bw_util=0.234
n_activity=630015 dram_eff=0.3038
bk0: 0a 753158i bk1: 0a 756438i bk2: 0a 757503i bk3: 0a 759308i bk4: 0a 765217i bk5: 0a 764923i bk6: 0a 764171i bk7: 0a 764196i bk8: 0a 757704i bk9: 0a 757596i bk10: 0a 752051i bk11: 0a 752254i bk12: 0a 751170i bk13: 0a 745883i bk14: 0a 753102i bk15: 0a 752297i 

------------------------------------------------------------------------

Row_Buffer_Locality = 0.093455
Row_Buffer_Locality_read = -nan
Row_Buffer_Locality_write = 0.093455
Bank_Level_Parallism = 1.855420
Bank_Level_Parallism_Col = 1.374232
Bank_Level_Parallism_Ready = 1.114392
write_to_read_ratio_blp_rw_average = 1.000000
GrpLevelPara = 1.278027 

BW Util details:
bwutil = 0.234041 
total_CMD = 817841 
util_bw = 191408 
Wasted_Col = 210896 
Wasted_Row = 133129 
Idle = 282408 

BW Util Bottlenecks: 
RCDc_limit = 0 
RCDWRc_limit = 138084 
WTRc_limit = 0 
RTWc_limit = 0 
CCDLc_limit = 124985 
rwq = 0 
CCDLc_limit_alone = 124985 
WTRc_limit_alone = 0 
RTWc_limit_alone = 0 

Commands details: 
total_CMD = 817841 
n_nop = 680681 
Read = 0 
Write = 0 
L2_Alloc = 0 
L2_WB = 95704 
n_act = 21690 
n_pre = 21674 
n_ref = 0 
n_req = 23926 
total_req = 95704 

Dual Bus Interface Util: 
issued_total_row = 43364 
issued_total_col = 95704 
Row_Bus_Util =  0.053023 
CoL_Bus_Util = 0.117020 
Either_Row_CoL_Bus_Util = 0.167710 
Issued_on_Two_Bus_Simul_Util = 0.002333 
issued_two_Eff = 0.013911 
queue_avg = 0.092051 


dram_util_bins: 0 0 0 0 0 0 0 0 0 0
dram_eff_bins: 0 0 0 0 0 0 0 0 0 0
mrqq: max=5 avg=0.0920509
Memory Partition 9: 
Cache L2_bank_018:
MSHR contents

Cache L2_bank_019:
MSHR contents

In Dram Latency Queue (total = 0): 
DRAM[9]: 16 bks, busW=4 BL=8 CL=16, tRRD=8 tCCD=2, tRCD=16 tRAS=37 tRP=16 tRC=52
n_cmd=817841 n_nop=681571 n_act=21525 n_pre=21509 n_ref_event=0 n_req=23754 n_rd=0 n_rd_L2_A=0 n_write=0 n_wr_bk=95016 bw_util=0.2324
n_activity=626238 dram_eff=0.3035
bk0: 0a 754208i bk1: 0a 752031i bk2: 0a 755951i bk3: 0a 757478i bk4: 0a 766985i bk5: 0a 762074i bk6: 0a 763796i bk7: 0a 764111i bk8: 0a 759564i bk9: 0a 762981i bk10: 0a 759708i bk11: 0a 751207i bk12: 0a 751297i bk13: 0a 750806i bk14: 0a 752024i bk15: 0a 750263i 

------------------------------------------------------------------------

Row_Buffer_Locality = 0.093837
Row_Buffer_Locality_read = -nan
Row_Buffer_Locality_write = 0.093837
Bank_Level_Parallism = 1.854854
Bank_Level_Parallism_Col = 1.377136
Bank_Level_Parallism_Ready = 1.116779
write_to_read_ratio_blp_rw_average = 1.000000
GrpLevelPara = 1.279495 

BW Util details:
bwutil = 0.232358 
total_CMD = 817841 
util_bw = 190032 
Wasted_Col = 209240 
Wasted_Row = 132222 
Idle = 286347 

BW Util Bottlenecks: 
RCDc_limit = 0 
RCDWRc_limit = 137040 
WTRc_limit = 0 
RTWc_limit = 0 
CCDLc_limit = 124278 
rwq = 0 
CCDLc_limit_alone = 124278 
WTRc_limit_alone = 0 
RTWc_limit_alone = 0 

Commands details: 
total_CMD = 817841 
n_nop = 681571 
Read = 0 
Write = 0 
L2_Alloc = 0 
L2_WB = 95016 
n_act = 21525 
n_pre = 21509 
n_ref = 0 
n_req = 23754 
total_req = 95016 

Dual Bus Interface Util: 
issued_total_row = 43034 
issued_total_col = 95016 
Row_Bus_Util =  0.052619 
CoL_Bus_Util = 0.116179 
Either_Row_CoL_Bus_Util = 0.166622 
Issued_on_Two_Bus_Simul_Util = 0.002176 
issued_two_Eff = 0.013062 
queue_avg = 0.089844 


dram_util_bins: 0 0 0 0 0 0 0 0 0 0
dram_eff_bins: 0 0 0 0 0 0 0 0 0 0
mrqq: max=4 avg=0.0898439
Memory Partition 10: 
Cache L2_bank_020:
MSHR contents

Cache L2_bank_021:
MSHR contents

In Dram Latency Queue (total = 0): 
DRAM[10]: 16 bks, busW=4 BL=8 CL=16, tRRD=8 tCCD=2, tRCD=16 tRAS=37 tRP=16 tRC=52
n_cmd=817841 n_nop=679041 n_act=21971 n_pre=21955 n_ref_event=0 n_req=24207 n_rd=0 n_rd_L2_A=0 n_write=0 n_wr_bk=96828 bw_util=0.2368
n_activity=635148 dram_eff=0.3049
bk0: 0a 751183i bk1: 0a 751779i bk2: 0a 757608i bk3: 0a 755642i bk4: 0a 764682i bk5: 0a 764212i bk6: 0a 760532i bk7: 0a 762015i bk8: 0a 756372i bk9: 0a 759430i bk10: 0a 751847i bk11: 0a 753079i bk12: 0a 751770i bk13: 0a 751594i bk14: 0a 749797i bk15: 0a 751745i 

------------------------------------------------------------------------

Row_Buffer_Locality = 0.092370
Row_Buffer_Locality_read = -nan
Row_Buffer_Locality_write = 0.092370
Bank_Level_Parallism = 1.857073
Bank_Level_Parallism_Col = 1.373694
Bank_Level_Parallism_Ready = 1.113991
write_to_read_ratio_blp_rw_average = 1.000000
GrpLevelPara = 1.277505 

BW Util details:
bwutil = 0.236789 
total_CMD = 817841 
util_bw = 193656 
Wasted_Col = 213777 
Wasted_Row = 134992 
Idle = 275416 

BW Util Bottlenecks: 
RCDc_limit = 0 
RCDWRc_limit = 140055 
WTRc_limit = 0 
RTWc_limit = 0 
CCDLc_limit = 126645 
rwq = 0 
CCDLc_limit_alone = 126645 
WTRc_limit_alone = 0 
RTWc_limit_alone = 0 

Commands details: 
total_CMD = 817841 
n_nop = 679041 
Read = 0 
Write = 0 
L2_Alloc = 0 
L2_WB = 96828 
n_act = 21971 
n_pre = 21955 
n_ref = 0 
n_req = 24207 
total_req = 96828 

Dual Bus Interface Util: 
issued_total_row = 43926 
issued_total_col = 96828 
Row_Bus_Util =  0.053710 
CoL_Bus_Util = 0.118395 
Either_Row_CoL_Bus_Util = 0.169715 
Issued_on_Two_Bus_Simul_Util = 0.002389 
issued_two_Eff = 0.014078 
queue_avg = 0.095528 


dram_util_bins: 0 0 0 0 0 0 0 0 0 0
dram_eff_bins: 0 0 0 0 0 0 0 0 0 0
mrqq: max=4 avg=0.0955283
Memory Partition 11: 
Cache L2_bank_022:
MSHR contents

Cache L2_bank_023:
MSHR contents

In Dram Latency Queue (total = 0): 
DRAM[11]: 16 bks, busW=4 BL=8 CL=16, tRRD=8 tCCD=2, tRCD=16 tRAS=37 tRP=16 tRC=52
n_cmd=817841 n_nop=679930 n_act=21748 n_pre=21732 n_ref_event=0 n_req=24061 n_rd=0 n_rd_L2_A=0 n_write=0 n_wr_bk=96244 bw_util=0.2354
n_activity=629704 dram_eff=0.3057
bk0: 0a 752139i bk1: 0a 755639i bk2: 0a 757697i bk3: 0a 760376i bk4: 0a 761356i bk5: 0a 765636i bk6: 0a 761641i bk7: 0a 762511i bk8: 0a 759700i bk9: 0a 760425i bk10: 0a 750965i bk11: 0a 753815i bk12: 0a 750740i bk13: 0a 749562i bk14: 0a 747869i bk15: 0a 750636i 

------------------------------------------------------------------------

Row_Buffer_Locality = 0.096131
Row_Buffer_Locality_read = -nan
Row_Buffer_Locality_write = 0.096131
Bank_Level_Parallism = 1.864414
Bank_Level_Parallism_Col = 1.377968
Bank_Level_Parallism_Ready = 1.116813
write_to_read_ratio_blp_rw_average = 1.000000
GrpLevelPara = 1.281111 

BW Util details:
bwutil = 0.235361 
total_CMD = 817841 
util_bw = 192488 
Wasted_Col = 210986 
Wasted_Row = 132931 
Idle = 281436 

BW Util Bottlenecks: 
RCDc_limit = 0 
RCDWRc_limit = 137882 
WTRc_limit = 0 
RTWc_limit = 0 
CCDLc_limit = 125504 
rwq = 0 
CCDLc_limit_alone = 125504 
WTRc_limit_alone = 0 
RTWc_limit_alone = 0 

Commands details: 
total_CMD = 817841 
n_nop = 679930 
Read = 0 
Write = 0 
L2_Alloc = 0 
L2_WB = 96244 
n_act = 21748 
n_pre = 21732 
n_ref = 0 
n_req = 24061 
total_req = 96244 

Dual Bus Interface Util: 
issued_total_row = 43480 
issued_total_col = 96244 
Row_Bus_Util =  0.053164 
CoL_Bus_Util = 0.117681 
Either_Row_CoL_Bus_Util = 0.168628 
Issued_on_Two_Bus_Simul_Util = 0.002217 
issued_two_Eff = 0.013146 
queue_avg = 0.093697 


dram_util_bins: 0 0 0 0 0 0 0 0 0 0
dram_eff_bins: 0 0 0 0 0 0 0 0 0 0
mrqq: max=4 avg=0.0936967

========= L2 cache stats =========
L2_cache_bank[0]: Access = 51468, Miss = 51456, Miss_rate = 1.000, Pending_hits = 0, Reservation_fails = 0
L2_cache_bank[1]: Access = 52184, Miss = 52168, Miss_rate = 1.000, Pending_hits = 0, Reservation_fails = 0
L2_cache_bank[2]: Access = 52464, Miss = 52436, Miss_rate = 0.999, Pending_hits = 0, Reservation_fails = 0
L2_cache_bank[3]: Access = 52432, Miss = 52424, Miss_rate = 1.000, Pending_hits = 0, Reservation_fails = 0
L2_cache_bank[4]: Access = 52120, Miss = 52108, Miss_rate = 1.000, Pending_hits = 0, Reservation_fails = 0
L2_cache_bank[5]: Access = 51568, Miss = 51560, Miss_rate = 1.000, Pending_hits = 0, Reservation_fails = 0
L2_cache_bank[6]: Access = 52280, Miss = 52268, Miss_rate = 1.000, Pending_hits = 0, Reservation_fails = 0
L2_cache_bank[7]: Access = 52144, Miss = 52124, Miss_rate = 1.000, Pending_hits = 0, Reservation_fails = 0
L2_cache_bank[8]: Access = 52448, Miss = 52436, Miss_rate = 1.000, Pending_hits = 0, Reservation_fails = 0
L2_cache_bank[9]: Access = 51968, Miss = 51944, Miss_rate = 1.000, Pending_hits = 0, Reservation_fails = 0
L2_cache_bank[10]: Access = 51484, Miss = 51472, Miss_rate = 1.000, Pending_hits = 0, Reservation_fails = 0
L2_cache_bank[11]: Access = 52584, Miss = 52564, Miss_rate = 1.000, Pending_hits = 0, Reservation_fails = 0
L2_cache_bank[12]: Access = 52456, Miss = 52432, Miss_rate = 1.000, Pending_hits = 0, Reservation_fails = 0
L2_cache_bank[13]: Access = 51140, Miss = 51136, Miss_rate = 1.000, Pending_hits = 0, Reservation_fails = 0
L2_cache_bank[14]: Access = 52996, Miss = 52972, Miss_rate = 1.000, Pending_hits = 0, Reservation_fails = 0
L2_cache_bank[15]: Access = 51960, Miss = 51940, Miss_rate = 1.000, Pending_hits = 0, Reservation_fails = 0
L2_cache_bank[16]: Access = 51932, Miss = 51924, Miss_rate = 1.000, Pending_hits = 0, Reservation_fails = 0
L2_cache_bank[17]: Access = 51988, Miss = 51972, Miss_rate = 1.000, Pending_hits = 0, Reservation_fails = 0
L2_cache_bank[18]: Access = 51832, Miss = 51812, Miss_rate = 1.000, Pending_hits = 0, Reservation_fails = 0
L2_cache_bank[19]: Access = 51428, Miss = 51396, Miss_rate = 0.999, Pending_hits = 0, Reservation_fails = 0
L2_cache_bank[20]: Access = 52820, Miss = 52792, Miss_rate = 0.999, Pending_hits = 0, Reservation_fails = 0
L2_cache_bank[21]: Access = 52248, Miss = 52228, Miss_rate = 1.000, Pending_hits = 0, Reservation_fails = 0
L2_cache_bank[22]: Access = 52516, Miss = 52500, Miss_rate = 1.000, Pending_hits = 0, Reservation_fails = 0
L2_cache_bank[23]: Access = 51940, Miss = 51936, Miss_rate = 1.000, Pending_hits = 0, Reservation_fails = 0
L2_total_cache_accesses = 1250400
L2_total_cache_misses = 1250000
L2_total_cache_miss_rate = 0.9997
L2_total_cache_pending_hits = 0
L2_total_cache_reservation_fails = 0
L2_total_cache_breakdown:
	L2_cache_stats_breakdown[GLOBAL_ACC_R][HIT] = 400
	L2_cache_stats_breakdown[GLOBAL_ACC_R][HIT_RESERVED] = 0
	L2_cache_stats_breakdown[GLOBAL_ACC_R][MISS] = 0
	L2_cache_stats_breakdown[GLOBAL_ACC_R][RESERVATION_FAIL] = 0
	L2_cache_stats_breakdown[GLOBAL_ACC_R][SECTOR_MISS] = 0
	L2_cache_stats_breakdown[GLOBAL_ACC_R][MSHR_HIT] = 0
	L2_cache_stats_breakdown[LOCAL_ACC_R][HIT] = 0
	L2_cache_stats_breakdown[LOCAL_ACC_R][HIT_RESERVED] = 0
	L2_cache_stats_breakdown[LOCAL_ACC_R][MISS] = 0
	L2_cache_stats_breakdown[LOCAL_ACC_R][RESERVATION_FAIL] = 0
	L2_cache_stats_breakdown[LOCAL_ACC_R][SECTOR_MISS] = 0
	L2_cache_stats_breakdown[LOCAL_ACC_R][MSHR_HIT] = 0
	L2_cache_stats_breakdown[CONST_ACC_R][HIT] = 0
	L2_cache_stats_breakdown[CONST_ACC_R][HIT_RESERVED] = 0
	L2_cache_stats_breakdown[CONST_ACC_R][MISS] = 0
	L2_cache_stats_breakdown[CONST_ACC_R][RESERVATION_FAIL] = 0
	L2_cache_stats_breakdown[CONST_ACC_R][SECTOR_MISS] = 0
	L2_cache_stats_breakdown[CONST_ACC_R][MSHR_HIT] = 0
	L2_cache_stats_breakdown[TEXTURE_ACC_R][HIT] = 0
	L2_cache_stats_breakdown[TEXTURE_ACC_R][HIT_RESERVED] = 0
	L2_cache_stats_breakdown[TEXTURE_ACC_R][MISS] = 0
	L2_cache_stats_breakdown[TEXTURE_ACC_R][RESERVATION_FAIL] = 0
	L2_cache_stats_breakdown[TEXTURE_ACC_R][SECTOR_MISS] = 0
	L2_cache_stats_breakdown[TEXTURE_ACC_R][MSHR_HIT] = 0
	L2_cache_stats_breakdown[GLOBAL_ACC_W][HIT] = 0
	L2_cache_stats_breakdown[GLOBAL_ACC_W][HIT_RESERVED] = 0
	L2_cache_stats_breakdown[GLOBAL_ACC_W][MISS] = 312500
	L2_cache_stats_breakdown[GLOBAL_ACC_W][RESERVATION_FAIL] = 0
	L2_cache_stats_breakdown[GLOBAL_ACC_W][SECTOR_MISS] = 937500
	L2_cache_stats_breakdown[GLOBAL_ACC_W][MSHR_HIT] = 0
	L2_cache_stats_breakdown[LOCAL_ACC_W][HIT] = 0
	L2_cache_stats_breakdown[LOCAL_ACC_W][HIT_RESERVED] = 0
	L2_cache_stats_breakdown[LOCAL_ACC_W][MISS] = 0
	L2_cache_stats_breakdown[LOCAL_ACC_W][RESERVATION_FAIL] = 0
	L2_cache_stats_breakdown[LOCAL_ACC_W][SECTOR_MISS] = 0
	L2_cache_stats_breakdown[LOCAL_ACC_W][MSHR_HIT] = 0
	L2_cache_stats_breakdown[L1_WRBK_ACC][HIT] = 0
	L2_cache_stats_breakdown[L1_WRBK_ACC][HIT_RESERVED] = 0
	L2_cache_stats_breakdown[L1_WRBK_ACC][MISS] = 0
	L2_cache_stats_breakdown[L1_WRBK_ACC][RESERVATION_FAIL] = 0
	L2_cache_stats_breakdown[L1_WRBK_ACC][SECTOR_MISS] = 0
	L2_cache_stats_breakdown[L1_WRBK_ACC][MSHR_HIT] = 0
	L2_cache_stats_breakdown[L2_WRBK_ACC][HIT] = 0
	L2_cache_stats_breakdown[L2_WRBK_ACC][HIT_RESERVED] = 0
	L2_cache_stats_breakdown[L2_WRBK_ACC][MISS] = 0
	L2_cache_stats_breakdown[L2_WRBK_ACC][RESERVATION_FAIL] = 0
	L2_cache_stats_breakdown[L2_WRBK_ACC][SECTOR_MISS] = 0
	L2_cache_stats_breakdown[L2_WRBK_ACC][MSHR_HIT] = 0
	L2_cache_stats_breakdown[INST_ACC_R][HIT] = 0
	L2_cache_stats_breakdown[INST_ACC_R][HIT_RESERVED] = 0
	L2_cache_stats_breakdown[INST_ACC_R][MISS] = 0
	L2_cache_stats_breakdown[INST_ACC_R][RESERVATION_FAIL] = 0
	L2_cache_stats_breakdown[INST_ACC_R][SECTOR_MISS] = 0
	L2_cache_stats_breakdown[INST_ACC_R][MSHR_HIT] = 0
	L2_cache_stats_breakdown[L1_WR_ALLOC_R][HIT] = 0
	L2_cache_stats_breakdown[L1_WR_ALLOC_R][HIT_RESERVED] = 0
	L2_cache_stats_breakdown[L1_WR_ALLOC_R][MISS] = 0
	L2_cache_stats_breakdown[L1_WR_ALLOC_R][RESERVATION_FAIL] = 0
	L2_cache_stats_breakdown[L1_WR_ALLOC_R][SECTOR_MISS] = 0
	L2_cache_stats_breakdown[L1_WR_ALLOC_R][MSHR_HIT] = 0
	L2_cache_stats_breakdown[L2_WR_ALLOC_R][HIT] = 0
	L2_cache_stats_breakdown[L2_WR_ALLOC_R][HIT_RESERVED] = 0
	L2_cache_stats_breakdown[L2_WR_ALLOC_R][MISS] = 0
	L2_cache_stats_breakdown[L2_WR_ALLOC_R][RESERVATION_FAIL] = 0
	L2_cache_stats_breakdown[L2_WR_ALLOC_R][SECTOR_MISS] = 0
	L2_cache_stats_breakdown[L2_WR_ALLOC_R][MSHR_HIT] = 0
	L2_cache_stats_breakdown[GLOBAL_ACC_R][TOTAL_ACCESS] = 400
	L2_cache_stats_breakdown[GLOBAL_ACC_W][TOTAL_ACCESS] = 1250000
L2_total_cache_reservation_fail_breakdown:
L2_cache_data_port_util = 0.104
L2_cache_fill_port_util = 0.000

icnt_total_pkts_mem_to_simt=1250400
icnt_total_pkts_simt_to_mem=1250400
LD_mem_lat_dist  0 0 0 0 0 0 0 0 0 0 0 0 0 0 0 0 0 0 0 0 0 0 0 0 0 0 0
ST_mem_lat_dist  0 0 0 0 0 0 0 0 0 0 0 0 0 0 0 0 0 0 0 0 0 0 0 0 0 0 0
----------------------------Interconnect-DETAILS--------------------------------
Class 0:
Packet latency average = 6.34102
	minimum = 5
	maximum = 44
Network latency average = 6.34102
	minimum = 5
	maximum = 44
Slowest packet = 2072241
Flit latency average = 6.34102
	minimum = 5
	maximum = 44
Slowest flit = 2072241
Fragmentation average = 0
	minimum = 0
	maximum = 0
Injected packet rate average = 0.103747
	minimum = 0 (at node 30)
	maximum = 0.458562 (at node 0)
Accepted packet rate average = 0.103747
	minimum = 0 (at node 30)
	maximum = 0.458562 (at node 0)
Injected flit rate average = 0.103747
	minimum = 0 (at node 30)
	maximum = 0.458562 (at node 0)
Accepted flit rate average= 0.103747
	minimum = 0 (at node 30)
	maximum = 0.458562 (at node 0)
Injected packet length average = 1
Accepted packet length average = 1
Total in-flight flits = 0 (0 measured)
====== Overall Traffic Statistics ======
====== Traffic class 0 ======
Packet latency average = 6.34102 (1 samples)
	minimum = 5 (1 samples)
	maximum = 44 (1 samples)
Network latency average = 6.34102 (1 samples)
	minimum = 5 (1 samples)
	maximum = 44 (1 samples)
Flit latency average = 6.34102 (1 samples)
	minimum = 5 (1 samples)
	maximum = 44 (1 samples)
Fragmentation average = 0 (1 samples)
	minimum = 0 (1 samples)
	maximum = 0 (1 samples)
Injected packet rate average = 0.103747 (1 samples)
	minimum = 0 (1 samples)
	maximum = 0.458562 (1 samples)
Accepted packet rate average = 0.103747 (1 samples)
	minimum = 0 (1 samples)
	maximum = 0.458562 (1 samples)
Injected flit rate average = 0.103747 (1 samples)
	minimum = 0 (1 samples)
	maximum = 0.458562 (1 samples)
Accepted flit rate average = 0.103747 (1 samples)
	minimum = 0 (1 samples)
	maximum = 0.458562 (1 samples)
Injected packet size average = 1 (1 samples)
Accepted packet size average = 1 (1 samples)
Hops average = 1 (1 samples)
----------------------------END-of-Interconnect-DETAILS-------------------------


gpgpu_simulation_time = 0 days, 0 hrs, 20 min, 51 sec (1251 sec)
gpgpu_simulation_rate = 192273 (inst/sec)
gpgpu_simulation_rate = 370 (cycle/sec)
gpgpu_silicon_slowdown = 3829729x
GPGPU-Sim: synchronize waiting for inactive GPU simulation
GPGPU-Sim API: Stream Manager State
GPGPU-Sim: detected inactive GPU simulation thread
Gsamples/s: 7.99413e-06
Reading results from GPU...

Executing QRNG on CPU...
Gsamples/s: 0.211806
Checking results...
L1-Error: 0
Shutting down...
GPGPU-Sim: *** exit detected ***
