Skipping setup_environment - already set
doing: export -n PTX_SIM_USE_PTX_FILE
doing: export LD_LIBRARY_PATH=/home/htran197/accel-sim-framework/gpu-simulator/../accelwattch_runs/pascal_sass_sim/gpgpu-sim-builds/accelsim-commit-f27c5430b80f8b73e4027c2c6d1a1db58dd4adea_modified_9.0:/home/htran197/accel-sim-framework/gpu-simulator/gpgpu-sim/lib/gcc-8.4.0/cuda-11000/release::/usr/lib/x86_64-linux-gnu/slurm-wlm/:/usr/lib/x86_64-linux-gnu/slurm-wlm/
doing: cd /home/htran197/accel-sim-framework/gpu-simulator/../accelwattch_runs/pascal_sass_sim/pathfinder-rodinia-3.1/100000_100_20___result_txt/TITANX-Accelwattch_SASS_SIM
doing: export OPENCL_CURRENT_TEST_PATH=/home/htran197/accel-sim-framework/gpu-simulator/../accelwattch_runs/pascal_sass_sim/pathfinder-rodinia-3.1/100000_100_20___result_txt/TITANX-Accelwattch_SASS_SIM
doing: export OPENCL_REMOTE_GPU_HOST=REPLACE_REMOTE_HOST
doing 
doing: export PATH=/home/htran197/anaconda3/envs/python2/bin:/home/htran197/anaconda3/bin:/usr/local/cuda-11.0/bin:/usr/local/cuda/bin:/home/htran197/.vscode-server/bin/6261075646f055b99068d3688932416f2346dd3b/bin/remote-cli:/home/htran197/anaconda3/condabin:/home/htran197/accel-sim-framework/gpu-simulator/gpgpu-sim/bin:/usr/local/cuda-11.0/bin:/home/htran197/anaconda3/bin:/usr/local/cuda-11.0/bin:/usr/local/cuda/bin:/usr/local/sbin:/usr/local/bin:/usr/sbin:/usr/bin:/sbin:/bin:/usr/games:/usr/local/games:/snap/bin:/usr/local/bin
doing export CUDA_LAUNCH_BLOCKING=1
doing:  /home/htran197/accel-sim-framework/gpu-simulator/../accelwattch_runs/pascal_sass_sim/gpgpu-sim-builds/accelsim-commit-f27c5430b80f8b73e4027c2c6d1a1db58dd4adea_modified_9.0/accel-sim.out  -config ./gpgpusim.config -trace ./traces/kernelslist.g


        *** GPGPU-Sim Simulator Version 4.2.0  [build gpgpu-sim_git-commit-971dd69e8a6c355c8cc4c8bd997db51376ff520a_modified_0.0] ***


GPGPU-Sim: Configuration options:

-save_embedded_ptx                      0 # saves ptx files embedded in binary as <n>.ptx
-keep                                   0 # keep intermediate files created by GPGPU-Sim when interfacing with external programs
-gpgpu_ptx_save_converted_ptxplus                    0 # Saved converted ptxplus to a file
-gpgpu_occupancy_sm_number                   62 # The SM number to pass to ptxas when getting register usage for computing GPU occupancy. This parameter is required in the config.
-ptx_opcode_latency_int      4,13,4,5,145,32 # Opcode latencies for integers <ADD,MAX,MUL,MAD,DIV,SHFL>Default 1,1,19,25,145,32
-ptx_opcode_latency_fp          4,13,4,4,39 # Opcode latencies for single precision floating points <ADD,MAX,MUL,MAD,DIV>Default 1,1,1,1,30
-ptx_opcode_latency_dp         8,19,8,8,330 # Opcode latencies for double precision floating points <ADD,MAX,MUL,MAD,DIV>Default 8,8,8,8,335
-ptx_opcode_latency_sfu                   20 # Opcode latencies for SFU instructionsDefault 8
-ptx_opcode_latency_tesnor                   64 # Opcode latencies for Tensor instructionsDefault 64
-ptx_opcode_initiation_int          1,1,1,1,4,4 # Opcode initiation intervals for integers <ADD,MAX,MUL,MAD,DIV,SHFL>Default 1,1,4,4,32,4
-ptx_opcode_initiation_fp            1,2,1,1,4 # Opcode initiation intervals for single precision floating points <ADD,MAX,MUL,MAD,DIV>Default 1,1,1,1,5
-ptx_opcode_initiation_dp          8,8,8,8,130 # Opcode initiation intervals for double precision floating points <ADD,MAX,MUL,MAD,DIV>Default 8,8,8,8,130
-ptx_opcode_initiation_sfu                    4 # Opcode initiation intervals for sfu instructionsDefault 8
-ptx_opcode_initiation_tensor                   64 # Opcode initiation intervals for tensor instructionsDefault 64
-cdp_latency         7200,8000,100,12000,1600 # CDP API latency <cudaStreamCreateWithFlags, cudaGetParameterBufferV2_init_perWarp, cudaGetParameterBufferV2_perKernel, cudaLaunchDeviceV2_init_perWarp, cudaLaunchDevicV2_perKernel>Default 7200,8000,100,12000,1600
-network_mode                           1 # Interconnection network mode
-inter_config_file   config_pascal_islip.icnt # Interconnection network config file
-icnt_in_buffer_limit                   64 # in_buffer_limit
-icnt_out_buffer_limit                   64 # out_buffer_limit
-icnt_subnets                           2 # subnets
-icnt_arbiter_algo                      1 # arbiter_algo
-icnt_verbose                           0 # inct_verbose
-icnt_grant_cycles                      1 # grant_cycles
-gpgpu_ptx_use_cuobjdump                    1 # Use cuobjdump to extract ptx and sass from binaries
-gpgpu_experimental_lib_support                    0 # Try to extract code from cuda libraries [Broken because of unknown cudaGetExportTable]
-checkpoint_option                      0 #  checkpointing flag (0 = no checkpoint)
-checkpoint_kernel                      1 #  checkpointing during execution of which kernel (1- 1st kernel)
-checkpoint_CTA                         0 #  checkpointing after # of CTA (< less than total CTA)
-resume_option                          0 #  resume flag (0 = no resume)
-resume_kernel                          0 #  Resume from which kernel (1= 1st kernel)
-resume_CTA                             0 #  resume from which CTA 
-checkpoint_CTA_t                       0 #  resume from which CTA 
-checkpoint_insn_Y                      0 #  resume from which CTA 
-gpgpu_ptx_convert_to_ptxplus                    0 # Convert SASS (native ISA) to ptxplus and run ptxplus
-gpgpu_ptx_force_max_capability                   61 # Force maximum compute capability
-gpgpu_ptx_inst_debug_to_file                    0 # Dump executed instructions' debug information to file
-gpgpu_ptx_inst_debug_file       inst_debug.txt # Executed instructions' debug output file
-gpgpu_ptx_inst_debug_thread_uid                    1 # Thread UID for executed instructions' debug output
-gpgpu_simd_model                       1 # 1 = post-dominator
-gpgpu_shader_core_pipeline              2048:32 # shader core pipeline config, i.e., {<nthread>:<warpsize>}
-gpgpu_tex_cache:l1  N:16:128:24,L:R:m:N:L,T:128:4,128:2 # per-shader L1 texture cache  (READ-ONLY) config  {<nsets>:<bsize>:<assoc>,<rep>:<wr>:<alloc>:<wr_alloc>,<mshr>:<N>:<merge>,<mq>:<rf>}
-gpgpu_const_cache:l1 N:128:64:2,L:R:f:N:L,S:2:64,4 # per-shader L1 constant memory cache  (READ-ONLY) config  {<nsets>:<bsize>:<assoc>,<rep>:<wr>:<alloc>:<wr_alloc>,<mshr>:<N>:<merge>,<mq>} 
-gpgpu_cache:il1     N:8:128:4,L:R:f:N:L,S:2:48,4 # shader L1 instruction cache config  {<nsets>:<bsize>:<assoc>,<rep>:<wr>:<alloc>:<wr_alloc>,<mshr>:<N>:<merge>,<mq>} 
-gpgpu_cache:dl1     S:4:128:96,L:L:s:N:L,A:256:8,16:0,32 # per-shader L1 data cache config  {<nsets>:<bsize>:<assoc>,<rep>:<wr>:<alloc>:<wr_alloc>,<mshr>:<N>:<merge>,<mq> | none}
-gpgpu_l1_banks                         2 # The number of L1 cache banks
-gpgpu_l1_banks_byte_interleaving                   32 # l1 banks byte interleaving granularity
-gpgpu_l1_banks_hashing_function                    0 # l1 banks hashing function
-gpgpu_l1_latency                      82 # L1 Hit Latency
-gpgpu_smem_latency                    24 # smem Latency
-gpgpu_cache:dl1PrefL1 S:4:128:96,L:L:s:N:L,A:256:8,16:0,32 # per-shader L1 data cache config  {<nsets>:<bsize>:<assoc>,<rep>:<wr>:<alloc>:<wr_alloc>,<mshr>:<N>:<merge>,<mq> | none}
-gpgpu_cache:dl1PrefShared S:4:128:96,L:L:s:N:L,A:256:8,16:0,32 # per-shader L1 data cache config  {<nsets>:<bsize>:<assoc>,<rep>:<wr>:<alloc>:<wr_alloc>,<mshr>:<N>:<merge>,<mq> | none}
-gpgpu_gmem_skip_L1D                    1 # global memory access skip L1D cache (implements -Xptxas -dlcm=cg, default=no skip)
-gpgpu_perfect_mem                      0 # enable perfect memory mode (no cache miss)
-n_regfile_gating_group                    4 # group of lanes that should be read/written together)
-gpgpu_clock_gated_reg_file                    0 # enable clock gated reg file for power calculations
-gpgpu_clock_gated_lanes                    1 # enable clock gated lanes for power calculations
-gpgpu_shader_registers                65536 # Number of registers per shader core. Limits number of concurrent CTAs. (default 8192)
-gpgpu_registers_per_block                 8192 # Maximum number of registers per CTA. (default 8192)
-gpgpu_ignore_resources_limitation                    1 # gpgpu_ignore_resources_limitation (default 0)
-gpgpu_shader_cta                      32 # Maximum number of concurrent CTAs in shader (default 8)
-gpgpu_num_cta_barriers                   16 # Maximum number of named barriers per CTA (default 16)
-gpgpu_n_clusters                       6 # number of processing clusters
-gpgpu_n_cores_per_cluster                    1 # number of simd cores per cluster
-gpgpu_n_cluster_ejection_buffer_size                   32 # number of packets in ejection buffer
-gpgpu_n_ldst_response_buffer_size                    2 # number of response packets in ld/st unit ejection buffer
-gpgpu_shmem_per_block                49152 # Size of shared memory per thread block or CTA (default 48kB)
-gpgpu_shmem_size                   98304 # Size of shared memory per shader core (default 16kB)
-gpgpu_adaptive_cache_config                    0 # adaptive_cache_config
-gpgpu_shmem_sizeDefault                98304 # Size of shared memory per shader core (default 16kB)
-gpgpu_shmem_size_PrefL1                98304 # Size of shared memory per shader core (default 16kB)
-gpgpu_shmem_size_PrefShared                98304 # Size of shared memory per shader core (default 16kB)
-gpgpu_shmem_num_banks                   32 # Number of banks in the shared memory in each shader core (default 16)
-gpgpu_shmem_limited_broadcast                    0 # Limit shared memory to do one broadcast per cycle (default on)
-gpgpu_shmem_warp_parts                    1 # Number of portions a warp is divided into for shared memory bank conflict check 
-gpgpu_mem_unit_ports                    1 # The number of memory transactions allowed per core cycle
-gpgpu_shmem_warp_parts                    1 # Number of portions a warp is divided into for shared memory bank conflict check 
-gpgpu_warpdistro_shader                   -1 # Specify which shader core to collect the warp size distribution from
-gpgpu_warp_issue_shader                    0 # Specify which shader core to collect the warp issue distribution from
-gpgpu_local_mem_map                    1 # Mapping from local memory space address to simulated GPU physical address space (default = enabled)
-gpgpu_num_reg_banks                   16 # Number of register banks (default = 8)
-gpgpu_reg_bank_use_warp_id                    0 # Use warp ID in mapping registers to banks (default = off)
-gpgpu_sub_core_model                    1 # Sub Core Volta/Pascal model (default = off)
-gpgpu_enable_specialized_operand_collector                    0 # enable_specialized_operand_collector
-gpgpu_operand_collector_num_units_sp                    4 # number of collector units (default = 4)
-gpgpu_operand_collector_num_units_dp                    0 # number of collector units (default = 0)
-gpgpu_operand_collector_num_units_sfu                    4 # number of collector units (default = 4)
-gpgpu_operand_collector_num_units_int                    0 # number of collector units (default = 0)
-gpgpu_operand_collector_num_units_tensor_core                    4 # number of collector units (default = 4)
-gpgpu_operand_collector_num_units_mem                    2 # number of collector units (default = 2)
-gpgpu_operand_collector_num_units_gen                    8 # number of collector units (default = 0)
-gpgpu_operand_collector_num_in_ports_sp                    1 # number of collector unit in ports (default = 1)
-gpgpu_operand_collector_num_in_ports_dp                    0 # number of collector unit in ports (default = 0)
-gpgpu_operand_collector_num_in_ports_sfu                    1 # number of collector unit in ports (default = 1)
-gpgpu_operand_collector_num_in_ports_int                    0 # number of collector unit in ports (default = 0)
-gpgpu_operand_collector_num_in_ports_tensor_core                    1 # number of collector unit in ports (default = 1)
-gpgpu_operand_collector_num_in_ports_mem                    1 # number of collector unit in ports (default = 1)
-gpgpu_operand_collector_num_in_ports_gen                    8 # number of collector unit in ports (default = 0)
-gpgpu_operand_collector_num_out_ports_sp                    1 # number of collector unit in ports (default = 1)
-gpgpu_operand_collector_num_out_ports_dp                    0 # number of collector unit in ports (default = 0)
-gpgpu_operand_collector_num_out_ports_sfu                    1 # number of collector unit in ports (default = 1)
-gpgpu_operand_collector_num_out_ports_int                    0 # number of collector unit in ports (default = 0)
-gpgpu_operand_collector_num_out_ports_tensor_core                    1 # number of collector unit in ports (default = 1)
-gpgpu_operand_collector_num_out_ports_mem                    1 # number of collector unit in ports (default = 1)
-gpgpu_operand_collector_num_out_ports_gen                    8 # number of collector unit in ports (default = 0)
-gpgpu_coalesce_arch                   61 # Coalescing arch (GT200 = 13, Fermi = 20)
-gpgpu_num_sched_per_core                    4 # Number of warp schedulers per core
-gpgpu_max_insn_issue_per_warp                    2 # Max number of instructions that can be issued per warp in one cycle by scheduler (either 1 or 2)
-gpgpu_dual_issue_diff_exec_units                    1 # should dual issue use two different execution unit resources (Default = 1)
-gpgpu_simt_core_sim_order                    1 # Select the simulation order of cores in a cluster (0=Fix, 1=Round-Robin)
-gpgpu_pipeline_widths 4,0,0,4,4,4,0,0,4,4,8 # Pipeline widths ID_OC_SP,ID_OC_DP,ID_OC_INT,ID_OC_SFU,ID_OC_MEM,OC_EX_SP,OC_EX_DP,OC_EX_INT,OC_EX_SFU,OC_EX_MEM,EX_WB,ID_OC_TENSOR_CORE,OC_EX_TENSOR_CORE
-gpgpu_tensor_core_avail                    0 # Tensor Core Available (default=0)
-gpgpu_num_sp_units                     4 # Number of SP units (default=1)
-gpgpu_num_dp_units                     0 # Number of DP units (default=0)
-gpgpu_num_int_units                    0 # Number of INT units (default=0)
-gpgpu_num_sfu_units                    4 # Number of SF units (default=1)
-gpgpu_num_tensor_core_units                    0 # Number of tensor_core units (default=1)
-gpgpu_num_mem_units                    1 # Number if ldst units (default=1) WARNING: not hooked up to anything
-gpgpu_scheduler                      gto # Scheduler configuration: < lrr | gto | two_level_active > If two_level_active:<num_active_warps>:<inner_prioritization>:<outer_prioritization>For complete list of prioritization values see shader.h enum scheduler_prioritization_typeDefault: gto
-gpgpu_concurrent_kernel_sm                    0 # Support concurrent kernels on a SM (default = disabled)
-gpgpu_perfect_inst_const_cache                    1 # perfect inst and const cache mode, so all inst and const hits in the cache(default = disabled)
-gpgpu_inst_fetch_throughput                    8 # the number of fetched intruction per warp each cycle
-gpgpu_reg_file_port_throughput                    2 # the number ports of the register file
-specialized_unit_1         0,4,4,4,4,BRA # specialized unit config {<enabled>,<num_units>:<latency>:<initiation>,<ID_OC_SPEC>:<OC_EX_SPEC>,<NAME>}
-specialized_unit_2         0,4,4,4,4,BRA # specialized unit config {<enabled>,<num_units>:<latency>:<initiation>,<ID_OC_SPEC>:<OC_EX_SPEC>,<NAME>}
-specialized_unit_3         0,4,4,4,4,BRA # specialized unit config {<enabled>,<num_units>:<latency>:<initiation>,<ID_OC_SPEC>:<OC_EX_SPEC>,<NAME>}
-specialized_unit_4         0,4,4,4,4,BRA # specialized unit config {<enabled>,<num_units>:<latency>:<initiation>,<ID_OC_SPEC>:<OC_EX_SPEC>,<NAME>}
-specialized_unit_5         0,4,4,4,4,BRA # specialized unit config {<enabled>,<num_units>:<latency>:<initiation>,<ID_OC_SPEC>:<OC_EX_SPEC>,<NAME>}
-specialized_unit_6         0,4,4,4,4,BRA # specialized unit config {<enabled>,<num_units>:<latency>:<initiation>,<ID_OC_SPEC>:<OC_EX_SPEC>,<NAME>}
-specialized_unit_7         0,4,4,4,4,BRA # specialized unit config {<enabled>,<num_units>:<latency>:<initiation>,<ID_OC_SPEC>:<OC_EX_SPEC>,<NAME>}
-specialized_unit_8         0,4,4,4,4,BRA # specialized unit config {<enabled>,<num_units>:<latency>:<initiation>,<ID_OC_SPEC>:<OC_EX_SPEC>,<NAME>}
-gpgpu_perf_sim_memcpy                    1 # Fill the L2 cache on memcpy
-gpgpu_simple_dram_model                    0 # simple_dram_model with fixed latency and BW
-gpgpu_dram_scheduler                    1 # 0 = fifo, 1 = FR-FCFS (defaul)
-gpgpu_dram_partition_queues          32:32:32:32 # i2$:$2d:d2$:$2i
-l2_ideal                               0 # Use a ideal L2 cache that always hit
-gpgpu_cache:dl2     S:64:128:16,L:B:m:L:P,A:256:64,16:0,32 # unified banked L2 data cache config  {<nsets>:<bsize>:<assoc>,<rep>:<wr>:<alloc>:<wr_alloc>,<mshr>:<N>:<merge>,<mq>}
-gpgpu_cache:dl2_texture_only                    0 # L2 cache used for texture only
-gpgpu_n_mem                           12 # number of memory modules (e.g. memory controllers) in gpu
-gpgpu_n_sub_partition_per_mchannel                    2 # number of memory subpartition in each memory module
-gpgpu_n_mem_per_ctrlr                    1 # number of memory chips per memory controller
-gpgpu_memlatency_stat                   14 # track and display latency statistics 0x2 enables MC, 0x4 enables queue logs
-gpgpu_frfcfs_dram_sched_queue_size                   64 # 0 = unlimited (default); # entries per chip
-gpgpu_dram_return_queue_size                   64 # 0 = unlimited (default); # entries per chip
-gpgpu_dram_buswidth                    4 # default = 4 bytes (8 bytes per cycle at DDR)
-gpgpu_dram_burst_length                    8 # Burst length of each DRAM request (default = 4 data bus cycle)
-dram_data_command_freq_ratio                    4 # Frequency ratio between DRAM data bus and command bus (default = 2 times, i.e. DDR)
-gpgpu_dram_timing_opt nbk=16:CCD=2:RRD=8:RCD=16:RAS=37:RP=16:RC=52: CL=16:WL=6:CDLR=7:WR=16:nbkgrp=4:CCDL=4:RTPL=3 # DRAM timing parameters = {nbk:tCCD:tRRD:tRCD:tRAS:tRP:tRC:CL:WL:tCDLR:tWR:nbkgrp:tCCDL:tRTPL}
-gpgpu_l2_rop_latency                  120 # ROP queue latency (default 85)
-dram_latency                         100 # DRAM latency (default 30)
-dram_dual_bus_interface                    0 # dual_bus_interface (default = 0) 
-dram_bnk_indexing_policy                    0 # dram_bnk_indexing_policy (0 = normal indexing, 1 = Xoring with the higher bits) (Default = 0)
-dram_bnkgrp_indexing_policy                    1 # dram_bnkgrp_indexing_policy (0 = take higher bits, 1 = take lower bits) (Default = 0)
-dram_seperate_write_queue_enable                    0 # Seperate_Write_Queue_Enable
-dram_write_queue_size             32:28:16 # Write_Queue_Size
-dram_elimnate_rw_turnaround                    0 # elimnate_rw_turnaround i.e set tWTR and tRTW = 0
-icnt_flit_size                        40 # icnt_flit_size
-gpgpu_mem_addr_mapping dramid@8;00000000.00000000.00000000.00000000.0000RRRR.RRRRRRRR.RBBBCCCC.BCCSSSSS # mapping memory address to dram model {dramid@<start bit>;<memory address map>}
-gpgpu_mem_addr_test                    0 # run sweep test to check address mapping for aliased address
-gpgpu_mem_address_mask                    1 # 0 = old addressing mask, 1 = new addressing mask, 2 = new add. mask + flipped bank sel and chip sel bits
-gpgpu_memory_partition_indexing                    4 # 0 = no indexing, 1 = bitwise xoring, 2 = IPoly, 3 = custom indexing
-accelwattch_xml_file accelwattch_sass_sim.xml # AccelWattch XML file
-power_simulation_enabled                    1 # Turn on power simulator (1=On, 0=Off)
-power_per_cycle_dump                    0 # Dump detailed power output each cycle
-hw_perf_file_name            hw_perf.csv # Hardware Performance Statistics file
-hw_perf_bench_name                       # Kernel Name in Hardware Performance Statistics file
-power_simulation_mode                    0 # Switch performance counter input for power simulation (0=Sim, 1=HW, 2=HW-Sim Hybrid)
-dvfs_enabled                           0 # Turn on DVFS for power model
-aggregate_power_stats                    0 # Accumulate power across all kernels
-accelwattch_hybrid_perfsim_L1_RH                    0 # Get L1 Read Hits for Accelwattch-Hybrid from Accel-Sim
-accelwattch_hybrid_perfsim_L1_RM                    0 # Get L1 Read Misses for Accelwattch-Hybrid from Accel-Sim
-accelwattch_hybrid_perfsim_L1_WH                    0 # Get L1 Write Hits for Accelwattch-Hybrid from Accel-Sim
-accelwattch_hybrid_perfsim_L1_WM                    0 # Get L1 Write Misses for Accelwattch-Hybrid from Accel-Sim
-accelwattch_hybrid_perfsim_L2_RH                    0 # Get L2 Read Hits for Accelwattch-Hybrid from Accel-Sim
-accelwattch_hybrid_perfsim_L2_RM                    0 # Get L2 Read Misses for Accelwattch-Hybrid from Accel-Sim
-accelwattch_hybrid_perfsim_L2_WH                    0 # Get L2 Write Hits for Accelwattch-Hybrid from Accel-Sim
-accelwattch_hybrid_perfsim_L2_WM                    0 # Get L2 Write Misses for Accelwattch-Hybrid from Accel-Sim
-accelwattch_hybrid_perfsim_CC_ACC                    0 # Get Constant Cache Acesses for Accelwattch-Hybrid from Accel-Sim
-accelwattch_hybrid_perfsim_SHARED_ACC                    0 # Get Shared Memory Acesses for Accelwattch-Hybrid from Accel-Sim
-accelwattch_hybrid_perfsim_DRAM_RD                    0 # Get DRAM Reads for Accelwattch-Hybrid from Accel-Sim
-accelwattch_hybrid_perfsim_DRAM_WR                    0 # Get DRAM Writes for Accelwattch-Hybrid from Accel-Sim
-accelwattch_hybrid_perfsim_NOC                    0 # Get Interconnect Acesses for Accelwattch-Hybrid from Accel-Sim
-accelwattch_hybrid_perfsim_PIPE_DUTY                    0 # Get Pipeline Duty Cycle Acesses for Accelwattch-Hybrid from Accel-Sim
-accelwattch_hybrid_perfsim_NUM_SM_IDLE                    0 # Get Number of Idle SMs for Accelwattch-Hybrid from Accel-Sim
-accelwattch_hybrid_perfsim_CYCLES                    0 # Get Executed Cycles for Accelwattch-Hybrid from Accel-Sim
-accelwattch_hybrid_perfsim_VOLTAGE                    0 # Get Chip Voltage for Accelwattch-Hybrid from Accel-Sim
-power_trace_enabled                    0 # produce a file for the power trace (1=On, 0=Off)
-power_trace_zlevel                     6 # Compression level of the power trace output log (0=no comp, 9=highest)
-steady_power_levels_enabled                    0 # produce a file for the steady power levels (1=On, 0=Off)
-steady_state_definition                  8:4 # allowed deviation:number of samples
-gpgpu_max_cycle                        0 # terminates gpu simulation early (0 = no limit)
-gpgpu_max_insn                         0 # terminates gpu simulation early (0 = no limit)
-gpgpu_max_cta                          0 # terminates gpu simulation early (0 = no limit)
-gpgpu_max_completed_cta                    0 # terminates gpu simulation early (0 = no limit)
-gpgpu_runtime_stat                   500 # display runtime statistics such as dram utilization {<freq>:<flag>}
-liveness_message_freq                    1 # Minimum number of seconds between simulation liveness messages (0 = always print)
-gpgpu_compute_capability_major                    6 # Major compute capability version number
-gpgpu_compute_capability_minor                    1 # Minor compute capability version number
-gpgpu_flush_l1_cache                    1 # Flush L1 cache at the end of each kernel call
-gpgpu_flush_l2_cache                    0 # Flush L2 cache at the end of each kernel call
-gpgpu_deadlock_detect                    1 # Stop the simulation at deadlock (1=on (default), 0=off)
-gpgpu_ptx_instruction_classification                    0 # if enabled will classify ptx instruction types per kernel (Max 255 kernels now)
-gpgpu_ptx_sim_mode                     0 # Select between Performance (default) or Functional simulation (1)
-gpgpu_clock_domains 1417.0:1417.0:1417.0:2500.0 # Clock Domain Frequencies in MhZ {<Core Clock>:<ICNT Clock>:<L2 Clock>:<DRAM Clock>}
-gpgpu_max_concurrent_kernel                    8 # maximum kernels that can run concurrently on GPU
-gpgpu_cflog_interval                    0 # Interval between each snapshot in control flow logger
-visualizer_enabled                     0 # Turn on visualizer output (1=On, 0=Off)
-visualizer_outputfile                 NULL # Specifies the output log file for visualizer
-visualizer_zlevel                      6 # Compression level of the visualizer output log (0=no comp, 9=highest)
-gpgpu_stack_size_limit                 1024 # GPU thread stack size
-gpgpu_heap_size_limit              8388608 # GPU malloc heap size 
-gpgpu_runtime_sync_depth_limit                    2 # GPU device runtime synchronize depth
-gpgpu_runtime_pending_launch_count_limit                 2048 # GPU device runtime pending launch count
-trace_enabled                          0 # Turn on traces
-trace_components                    none # comma seperated list of traces to enable. Complete list found in trace_streams.tup. Default none
-trace_sampling_core                    0 # The core which is printed using CORE_DPRINTF. Default 0
-trace_sampling_memory_partition                   -1 # The memory partition which is printed using MEMPART_DPRINTF. Default -1 (i.e. all)
-enable_ptx_file_line_stats                    1 # Turn on PTX source line statistic profiling. (1 = On)
-ptx_line_stats_filename gpgpu_inst_stats.txt # Output file for PTX source line statistics.
-gpgpu_kernel_launch_latency                 5000 # Kernel launch latency in cycles. Default: 0
-gpgpu_cdp_enabled                      0 # Turn on CDP
-gpgpu_TB_launch_latency                    0 # thread block launch latency in cycles. Default: 0
-trace               ./traces/kernelslist.g # traces kernel filetraces kernel file directory
-trace_opcode_latency_initiation_int                  4,1 # Opcode latencies and initiation for integers in trace driven mode <latency,initiation>
-trace_opcode_latency_initiation_sp                  4,1 # Opcode latencies and initiation for sp in trace driven mode <latency,initiation>
-trace_opcode_latency_initiation_dp                 20,8 # Opcode latencies and initiation for dp in trace driven mode <latency,initiation>
-trace_opcode_latency_initiation_sfu                 20,4 # Opcode latencies and initiation for sfu in trace driven mode <latency,initiation>
-trace_opcode_latency_initiation_tensor                  4,1 # Opcode latencies and initiation for tensor in trace driven mode <latency,initiation>
-trace_opcode_latency_initiation_spec_op_1                  4,4 # specialized unit config <latency,initiation>
-trace_opcode_latency_initiation_spec_op_2                  4,4 # specialized unit config <latency,initiation>
-trace_opcode_latency_initiation_spec_op_3                  4,4 # specialized unit config <latency,initiation>
-trace_opcode_latency_initiation_spec_op_4                  4,4 # specialized unit config <latency,initiation>
-trace_opcode_latency_initiation_spec_op_5                  4,4 # specialized unit config <latency,initiation>
-trace_opcode_latency_initiation_spec_op_6                  4,4 # specialized unit config <latency,initiation>
-trace_opcode_latency_initiation_spec_op_7                  4,4 # specialized unit config <latency,initiation>
-trace_opcode_latency_initiation_spec_op_8                  4,4 # specialized unit config <latency,initiation>
DRAM Timing Options:
nbk                                    16 # number of banks
CCD                                     2 # column to column delay
RRD                                     8 # minimal delay between activation of rows in different banks
RCD                                    16 # row to column delay
RAS                                    37 # time needed to activate row
RP                                     16 # time needed to precharge (deactivate) row
RC                                     52 # row cycle time
CDLR                                    7 # switching from write to read (changes tWTR)
WR                                     16 # last data-in to row precharge
CL                                     16 # CAS latency
WL                                      6 # Write latency
nbkgrp                                  4 # number of bank groups
CCDL                                    4 # column to column delay between accesses to different bank groups
RTPL                                    3 # read to precharge delay between accesses to different bank groups
Total number of memory sub partition = 24
addr_dec_mask[CHIP]  = 0000000000000000 	high:64 low:0
addr_dec_mask[BK]    = 0000000000007080 	high:15 low:7
addr_dec_mask[ROW]   = 000000000fff8000 	high:28 low:15
addr_dec_mask[COL]   = 0000000000000f7f 	high:12 low:0
addr_dec_mask[BURST] = 000000000000001f 	high:5 low:0
sub_partition_id_mask = 0000000000000080
GPGPU-Sim uArch: clock freqs: 1417000000.000000:1417000000.000000:1417000000.000000:2500000000.000000
GPGPU-Sim uArch: clock periods: 0.00000000070571630205:0.00000000070571630205:0.00000000070571630205:0.00000000040000000000
*** Initializing Memory Statistics ***
GPGPU-Sim uArch: interconnect node map (shaderID+MemID to icntID)
GPGPU-Sim uArch: Memory nodes ID start from index: 6
GPGPU-Sim uArch:    0   1   2   3   4   5   6
GPGPU-Sim uArch:    7   8   9  10  11  12  13
GPGPU-Sim uArch:   14  15  16  17  18  19  20
GPGPU-Sim uArch:   21  22  23  24  25  26  27
GPGPU-Sim uArch:   28  29  30  31  32  33  34
GPGPU-Sim uArch:   35  36  37  38  39  40  41
GPGPU-Sim uArch:   42  43  44  45  46  47  48
GPGPU-Sim uArch:   49  50  51
GPGPU-Sim uArch: interconnect node reverse map (icntID to shaderID+MemID)
GPGPU-Sim uArch: Memory nodes start from ID: 6
GPGPU-Sim uArch:    0   1   2   3   4   5   6
GPGPU-Sim uArch:    7   8   9  10  11  12  13
GPGPU-Sim uArch:   14  15  16  17  18  19  20
GPGPU-Sim uArch:   21  22  23  24  25  26  27
GPGPU-Sim uArch:   28  29  30  31  32  33  34
GPGPU-Sim uArch:   35  36  37  38  39  40  41
GPGPU-Sim uArch:   42  43  44  45  46  47  48
GPGPU-Sim uArch:   49  50  51
GPGPU-Sim uArch: performance model initialization complete.
launching memcpy command : MemcpyHtoD,0x00007f0cadf00000,400000
launching memcpy command : MemcpyHtoD,0x00007f0ca0000000,39600000
Processing kernel ./traces/kernel-1.traceg
-kernel name = _Z14dynproc_kerneliPiS_S_iiii
-kernel id = 1
-grid dim = (463,1,1)
-block dim = (256,1,1)
-shmem = 2048
-nregs = 18
-binary version = 60
-cuda stream id = 0
-shmem base_addr = 0x00007f0cd5000000
-local mem base_addr = 0x00007f0cd3000000
-nvbit version = 1.5
-accelsim tracer version = 3
launching kernel command : ./traces/kernel-1.traceg
GPGPU-Sim uArch: Shader 0 bind to kernel 1 '_Z14dynproc_kerneliPiS_S_iiii'
GPGPU-Sim uArch: CTA/core = 8, limited by: threads
thread block = 0,0,0
GPGPU-Sim uArch: Shader 1 bind to kernel 1 '_Z14dynproc_kerneliPiS_S_iiii'
thread block = 1,0,0
GPGPU-Sim uArch: Shader 2 bind to kernel 1 '_Z14dynproc_kerneliPiS_S_iiii'
thread block = 2,0,0
GPGPU-Sim uArch: Shader 3 bind to kernel 1 '_Z14dynproc_kerneliPiS_S_iiii'
thread block = 3,0,0
GPGPU-Sim uArch: Shader 4 bind to kernel 1 '_Z14dynproc_kerneliPiS_S_iiii'
thread block = 4,0,0
GPGPU-Sim uArch: Shader 5 bind to kernel 1 '_Z14dynproc_kerneliPiS_S_iiii'
thread block = 5,0,0
thread block = 6,0,0
thread block = 7,0,0
thread block = 8,0,0
thread block = 9,0,0
thread block = 10,0,0
thread block = 11,0,0
thread block = 12,0,0
thread block = 13,0,0
thread block = 14,0,0
thread block = 15,0,0
thread block = 16,0,0
thread block = 17,0,0
thread block = 18,0,0
thread block = 19,0,0
thread block = 20,0,0
thread block = 21,0,0
thread block = 22,0,0
thread block = 23,0,0
thread block = 24,0,0
thread block = 25,0,0
thread block = 26,0,0
thread block = 27,0,0
thread block = 28,0,0
thread block = 29,0,0
thread block = 30,0,0
thread block = 31,0,0
thread block = 32,0,0
thread block = 33,0,0
thread block = 34,0,0
thread block = 35,0,0
thread block = 36,0,0
thread block = 37,0,0
thread block = 38,0,0
thread block = 39,0,0
thread block = 40,0,0
thread block = 41,0,0
thread block = 42,0,0
thread block = 43,0,0
thread block = 44,0,0
thread block = 45,0,0
thread block = 46,0,0
thread block = 47,0,0
thread block = 48,0,0
thread block = 49,0,0
thread block = 50,0,0
thread block = 51,0,0
thread block = 52,0,0
thread block = 53,0,0
thread block = 54,0,0
thread block = 55,0,0
thread block = 56,0,0
thread block = 57,0,0
thread block = 58,0,0
thread block = 59,0,0
thread block = 60,0,0
thread block = 61,0,0
thread block = 62,0,0
thread block = 63,0,0
thread block = 64,0,0
thread block = 65,0,0
thread block = 66,0,0
thread block = 67,0,0
thread block = 68,0,0
thread block = 69,0,0
thread block = 70,0,0
thread block = 71,0,0
thread block = 72,0,0
thread block = 73,0,0
thread block = 74,0,0
thread block = 75,0,0
thread block = 76,0,0
thread block = 77,0,0
thread block = 78,0,0
thread block = 79,0,0
thread block = 80,0,0
thread block = 81,0,0
thread block = 82,0,0
thread block = 83,0,0
thread block = 84,0,0
thread block = 85,0,0
thread block = 86,0,0
thread block = 87,0,0
thread block = 88,0,0
thread block = 89,0,0
thread block = 90,0,0
thread block = 91,0,0
thread block = 92,0,0
thread block = 93,0,0
thread block = 94,0,0
thread block = 95,0,0
thread block = 96,0,0
thread block = 97,0,0
thread block = 98,0,0
thread block = 99,0,0
thread block = 100,0,0
thread block = 101,0,0
thread block = 102,0,0
thread block = 103,0,0
thread block = 104,0,0
thread block = 105,0,0
thread block = 106,0,0
thread block = 107,0,0
thread block = 108,0,0
thread block = 109,0,0
thread block = 110,0,0
thread block = 111,0,0
thread block = 112,0,0
thread block = 113,0,0
thread block = 114,0,0
thread block = 115,0,0
thread block = 116,0,0
thread block = 117,0,0
thread block = 118,0,0
thread block = 119,0,0
thread block = 120,0,0
thread block = 121,0,0
thread block = 122,0,0
thread block = 123,0,0
thread block = 124,0,0
thread block = 125,0,0
thread block = 126,0,0
thread block = 127,0,0
thread block = 128,0,0
thread block = 129,0,0
thread block = 130,0,0
thread block = 131,0,0
thread block = 132,0,0
thread block = 133,0,0
thread block = 134,0,0
thread block = 135,0,0
thread block = 136,0,0
thread block = 137,0,0
thread block = 138,0,0
thread block = 139,0,0
thread block = 140,0,0
thread block = 141,0,0
thread block = 142,0,0
thread block = 143,0,0
thread block = 144,0,0
thread block = 145,0,0
thread block = 146,0,0
thread block = 147,0,0
thread block = 148,0,0
thread block = 149,0,0
thread block = 150,0,0
thread block = 151,0,0
thread block = 152,0,0
thread block = 153,0,0
thread block = 154,0,0
thread block = 155,0,0
thread block = 156,0,0
thread block = 157,0,0
thread block = 158,0,0
thread block = 159,0,0
thread block = 160,0,0
thread block = 161,0,0
thread block = 162,0,0
thread block = 163,0,0
thread block = 164,0,0
thread block = 165,0,0
thread block = 166,0,0
thread block = 167,0,0
thread block = 168,0,0
thread block = 169,0,0
thread block = 170,0,0
thread block = 171,0,0
thread block = 172,0,0
thread block = 173,0,0
thread block = 174,0,0
thread block = 175,0,0
thread block = 176,0,0
thread block = 177,0,0
thread block = 178,0,0
thread block = 179,0,0
thread block = 180,0,0
thread block = 181,0,0
thread block = 182,0,0
thread block = 183,0,0
thread block = 184,0,0
thread block = 185,0,0
thread block = 186,0,0
thread block = 187,0,0
thread block = 188,0,0
thread block = 189,0,0
thread block = 190,0,0
thread block = 191,0,0
thread block = 192,0,0
thread block = 193,0,0
thread block = 194,0,0
thread block = 195,0,0
thread block = 196,0,0
thread block = 197,0,0
thread block = 198,0,0
thread block = 199,0,0
thread block = 200,0,0
thread block = 201,0,0
thread block = 202,0,0
thread block = 203,0,0
thread block = 204,0,0
thread block = 205,0,0
thread block = 206,0,0
thread block = 207,0,0
thread block = 208,0,0
thread block = 209,0,0
thread block = 210,0,0
thread block = 211,0,0
thread block = 212,0,0
thread block = 213,0,0
thread block = 214,0,0
thread block = 215,0,0
thread block = 216,0,0
thread block = 217,0,0
thread block = 218,0,0
thread block = 219,0,0
thread block = 220,0,0
thread block = 221,0,0
thread block = 222,0,0
thread block = 223,0,0
thread block = 224,0,0
thread block = 225,0,0
thread block = 226,0,0
thread block = 227,0,0
thread block = 228,0,0
thread block = 229,0,0
thread block = 230,0,0
thread block = 231,0,0
thread block = 232,0,0
thread block = 233,0,0
thread block = 234,0,0
thread block = 235,0,0
thread block = 236,0,0
thread block = 237,0,0
thread block = 238,0,0
thread block = 239,0,0
thread block = 240,0,0
thread block = 241,0,0
thread block = 242,0,0
thread block = 243,0,0
thread block = 244,0,0
thread block = 245,0,0
thread block = 246,0,0
thread block = 247,0,0
thread block = 248,0,0
thread block = 249,0,0
thread block = 250,0,0
thread block = 251,0,0
thread block = 252,0,0
thread block = 253,0,0
thread block = 254,0,0
thread block = 255,0,0
thread block = 256,0,0
thread block = 257,0,0
thread block = 258,0,0
thread block = 259,0,0
thread block = 260,0,0
thread block = 261,0,0
thread block = 262,0,0
thread block = 263,0,0
thread block = 264,0,0
thread block = 265,0,0
thread block = 266,0,0
thread block = 267,0,0
thread block = 268,0,0
thread block = 269,0,0
thread block = 270,0,0
thread block = 271,0,0
thread block = 272,0,0
thread block = 273,0,0
thread block = 274,0,0
thread block = 275,0,0
thread block = 276,0,0
thread block = 277,0,0
thread block = 278,0,0
thread block = 279,0,0
thread block = 280,0,0
thread block = 281,0,0
thread block = 282,0,0
thread block = 283,0,0
thread block = 284,0,0
thread block = 285,0,0
thread block = 286,0,0
thread block = 287,0,0
thread block = 288,0,0
thread block = 289,0,0
thread block = 290,0,0
thread block = 291,0,0
thread block = 292,0,0
thread block = 293,0,0
thread block = 294,0,0
thread block = 295,0,0
thread block = 296,0,0
thread block = 297,0,0
thread block = 298,0,0
thread block = 299,0,0
thread block = 300,0,0
thread block = 301,0,0
thread block = 302,0,0
thread block = 303,0,0
thread block = 304,0,0
thread block = 305,0,0
thread block = 306,0,0
thread block = 307,0,0
thread block = 308,0,0
thread block = 309,0,0
thread block = 310,0,0
thread block = 311,0,0
thread block = 312,0,0
thread block = 313,0,0
thread block = 314,0,0
thread block = 315,0,0
thread block = 316,0,0
thread block = 317,0,0
thread block = 318,0,0
thread block = 319,0,0
thread block = 320,0,0
thread block = 321,0,0
thread block = 322,0,0
thread block = 323,0,0
thread block = 324,0,0
thread block = 325,0,0
thread block = 326,0,0
thread block = 327,0,0
thread block = 328,0,0
thread block = 329,0,0
thread block = 330,0,0
thread block = 331,0,0
thread block = 332,0,0
thread block = 333,0,0
thread block = 334,0,0
thread block = 335,0,0
thread block = 336,0,0
thread block = 337,0,0
thread block = 338,0,0
thread block = 339,0,0
thread block = 340,0,0
thread block = 341,0,0
thread block = 342,0,0
thread block = 343,0,0
thread block = 344,0,0
thread block = 345,0,0
thread block = 346,0,0
thread block = 347,0,0
thread block = 348,0,0
thread block = 349,0,0
thread block = 350,0,0
thread block = 351,0,0
thread block = 352,0,0
thread block = 353,0,0
thread block = 354,0,0
thread block = 355,0,0
thread block = 356,0,0
thread block = 357,0,0
thread block = 358,0,0
thread block = 359,0,0
thread block = 360,0,0
thread block = 361,0,0
thread block = 362,0,0
thread block = 363,0,0
thread block = 364,0,0
thread block = 365,0,0
thread block = 366,0,0
thread block = 367,0,0
thread block = 368,0,0
thread block = 369,0,0
thread block = 370,0,0
thread block = 371,0,0
thread block = 372,0,0
thread block = 373,0,0
thread block = 374,0,0
thread block = 375,0,0
thread block = 376,0,0
thread block = 377,0,0
thread block = 378,0,0
thread block = 379,0,0
thread block = 380,0,0
thread block = 381,0,0
thread block = 382,0,0
thread block = 383,0,0
thread block = 384,0,0
thread block = 385,0,0
thread block = 386,0,0
thread block = 387,0,0
thread block = 388,0,0
thread block = 389,0,0
thread block = 390,0,0
thread block = 391,0,0
thread block = 392,0,0
thread block = 393,0,0
thread block = 394,0,0
thread block = 395,0,0
thread block = 396,0,0
thread block = 397,0,0
thread block = 398,0,0
thread block = 399,0,0
thread block = 400,0,0
thread block = 401,0,0
thread block = 402,0,0
thread block = 403,0,0
thread block = 404,0,0
thread block = 405,0,0
thread block = 406,0,0
thread block = 407,0,0
thread block = 408,0,0
thread block = 409,0,0
thread block = 410,0,0
thread block = 411,0,0
thread block = 412,0,0
thread block = 413,0,0
thread block = 414,0,0
thread block = 415,0,0
thread block = 416,0,0
thread block = 417,0,0
thread block = 418,0,0
thread block = 419,0,0
thread block = 420,0,0
thread block = 421,0,0
thread block = 422,0,0
thread block = 423,0,0
thread block = 424,0,0
thread block = 425,0,0
thread block = 426,0,0
thread block = 427,0,0
thread block = 428,0,0
thread block = 429,0,0
thread block = 430,0,0
thread block = 431,0,0
thread block = 432,0,0
thread block = 433,0,0
thread block = 434,0,0
thread block = 435,0,0
thread block = 436,0,0
thread block = 437,0,0
thread block = 438,0,0
thread block = 439,0,0
thread block = 440,0,0
thread block = 441,0,0
thread block = 442,0,0
thread block = 443,0,0
thread block = 444,0,0
thread block = 445,0,0
thread block = 446,0,0
thread block = 447,0,0
thread block = 448,0,0
thread block = 449,0,0
thread block = 450,0,0
thread block = 451,0,0
thread block = 452,0,0
thread block = 453,0,0
thread block = 454,0,0
thread block = 455,0,0
thread block = 456,0,0
thread block = 457,0,0
thread block = 458,0,0
thread block = 459,0,0
thread block = 460,0,0
thread block = 461,0,0
thread block = 462,0,0
Destroy streams for kernel 1: size 0
kernel_name = _Z14dynproc_kerneliPiS_S_iiii 
kernel_launch_uid = 1 
gpu_sim_cycle = 183553
gpu_sim_insn = 94224728
gpu_ipc =     513.3380
gpu_tot_sim_cycle = 183553
gpu_tot_sim_insn = 94224728
gpu_tot_ipc =     513.3380
gpu_tot_issued_cta = 463
gpu_occupancy = 96.4175% 
gpu_tot_occupancy = 96.4175% 
max_total_param_size = 0
gpu_stall_dramfull = 0
gpu_stall_icnt2sh    = 0
partiton_level_parallism =       2.0426
partiton_level_parallism_total  =       2.0426
partiton_level_parallism_util =       2.2808
partiton_level_parallism_util_total  =       2.2808
L2_BW  =      92.6196 GB/Sec
L2_BW_total  =      92.6196 GB/Sec
gpu_total_sim_rate=1653065

========= Core cache stats =========
L1I_cache:
	L1I_total_cache_accesses = 0
	L1I_total_cache_misses = 0
	L1I_total_cache_pending_hits = 0
	L1I_total_cache_reservation_fails = 0
L1D_cache:
	L1D_cache_core[0]: Access = 0, Miss = 0, Miss_rate = -nan, Pending_hits = 0, Reservation_fails = 0
	L1D_cache_core[1]: Access = 0, Miss = 0, Miss_rate = -nan, Pending_hits = 0, Reservation_fails = 0
	L1D_cache_core[2]: Access = 0, Miss = 0, Miss_rate = -nan, Pending_hits = 0, Reservation_fails = 0
	L1D_cache_core[3]: Access = 0, Miss = 0, Miss_rate = -nan, Pending_hits = 0, Reservation_fails = 0
	L1D_cache_core[4]: Access = 0, Miss = 0, Miss_rate = -nan, Pending_hits = 0, Reservation_fails = 0
	L1D_cache_core[5]: Access = 0, Miss = 0, Miss_rate = -nan, Pending_hits = 0, Reservation_fails = 0
	L1D_total_cache_accesses = 0
	L1D_total_cache_misses = 0
	L1D_total_cache_pending_hits = 0
	L1D_total_cache_reservation_fails = 0
	L1D_cache_data_port_util = 0.000
	L1D_cache_fill_port_util = 0.000
L1C_cache:
	L1C_total_cache_accesses = 0
	L1C_total_cache_misses = 0
	L1C_total_cache_pending_hits = 0
	L1C_total_cache_reservation_fails = 0
L1T_cache:
	L1T_total_cache_accesses = 0
	L1T_total_cache_misses = 0
	L1T_total_cache_pending_hits = 0
	L1T_total_cache_reservation_fails = 0

Total_core_cache_stats:
	Total_core_cache_stats_breakdown[GLOBAL_ACC_R][HIT] = 0
	Total_core_cache_stats_breakdown[GLOBAL_ACC_R][HIT_RESERVED] = 0
	Total_core_cache_stats_breakdown[GLOBAL_ACC_R][MISS] = 0
	Total_core_cache_stats_breakdown[GLOBAL_ACC_R][RESERVATION_FAIL] = 0
	Total_core_cache_stats_breakdown[GLOBAL_ACC_R][SECTOR_MISS] = 0
	Total_core_cache_stats_breakdown[GLOBAL_ACC_R][MSHR_HIT] = 0
	Total_core_cache_stats_breakdown[LOCAL_ACC_R][HIT] = 0
	Total_core_cache_stats_breakdown[LOCAL_ACC_R][HIT_RESERVED] = 0
	Total_core_cache_stats_breakdown[LOCAL_ACC_R][MISS] = 0
	Total_core_cache_stats_breakdown[LOCAL_ACC_R][RESERVATION_FAIL] = 0
	Total_core_cache_stats_breakdown[LOCAL_ACC_R][SECTOR_MISS] = 0
	Total_core_cache_stats_breakdown[LOCAL_ACC_R][MSHR_HIT] = 0
	Total_core_cache_stats_breakdown[CONST_ACC_R][HIT] = 0
	Total_core_cache_stats_breakdown[CONST_ACC_R][HIT_RESERVED] = 0
	Total_core_cache_stats_breakdown[CONST_ACC_R][MISS] = 0
	Total_core_cache_stats_breakdown[CONST_ACC_R][RESERVATION_FAIL] = 0
	Total_core_cache_stats_breakdown[CONST_ACC_R][SECTOR_MISS] = 0
	Total_core_cache_stats_breakdown[CONST_ACC_R][MSHR_HIT] = 0
	Total_core_cache_stats_breakdown[TEXTURE_ACC_R][HIT] = 0
	Total_core_cache_stats_breakdown[TEXTURE_ACC_R][HIT_RESERVED] = 0
	Total_core_cache_stats_breakdown[TEXTURE_ACC_R][MISS] = 0
	Total_core_cache_stats_breakdown[TEXTURE_ACC_R][RESERVATION_FAIL] = 0
	Total_core_cache_stats_breakdown[TEXTURE_ACC_R][SECTOR_MISS] = 0
	Total_core_cache_stats_breakdown[TEXTURE_ACC_R][MSHR_HIT] = 0
	Total_core_cache_stats_breakdown[GLOBAL_ACC_W][HIT] = 0
	Total_core_cache_stats_breakdown[GLOBAL_ACC_W][HIT_RESERVED] = 0
	Total_core_cache_stats_breakdown[GLOBAL_ACC_W][MISS] = 0
	Total_core_cache_stats_breakdown[GLOBAL_ACC_W][RESERVATION_FAIL] = 0
	Total_core_cache_stats_breakdown[GLOBAL_ACC_W][SECTOR_MISS] = 0
	Total_core_cache_stats_breakdown[GLOBAL_ACC_W][MSHR_HIT] = 0
	Total_core_cache_stats_breakdown[LOCAL_ACC_W][HIT] = 0
	Total_core_cache_stats_breakdown[LOCAL_ACC_W][HIT_RESERVED] = 0
	Total_core_cache_stats_breakdown[LOCAL_ACC_W][MISS] = 0
	Total_core_cache_stats_breakdown[LOCAL_ACC_W][RESERVATION_FAIL] = 0
	Total_core_cache_stats_breakdown[LOCAL_ACC_W][SECTOR_MISS] = 0
	Total_core_cache_stats_breakdown[LOCAL_ACC_W][MSHR_HIT] = 0
	Total_core_cache_stats_breakdown[L1_WRBK_ACC][HIT] = 0
	Total_core_cache_stats_breakdown[L1_WRBK_ACC][HIT_RESERVED] = 0
	Total_core_cache_stats_breakdown[L1_WRBK_ACC][MISS] = 0
	Total_core_cache_stats_breakdown[L1_WRBK_ACC][RESERVATION_FAIL] = 0
	Total_core_cache_stats_breakdown[L1_WRBK_ACC][SECTOR_MISS] = 0
	Total_core_cache_stats_breakdown[L1_WRBK_ACC][MSHR_HIT] = 0
	Total_core_cache_stats_breakdown[L2_WRBK_ACC][HIT] = 0
	Total_core_cache_stats_breakdown[L2_WRBK_ACC][HIT_RESERVED] = 0
	Total_core_cache_stats_breakdown[L2_WRBK_ACC][MISS] = 0
	Total_core_cache_stats_breakdown[L2_WRBK_ACC][RESERVATION_FAIL] = 0
	Total_core_cache_stats_breakdown[L2_WRBK_ACC][SECTOR_MISS] = 0
	Total_core_cache_stats_breakdown[L2_WRBK_ACC][MSHR_HIT] = 0
	Total_core_cache_stats_breakdown[INST_ACC_R][HIT] = 0
	Total_core_cache_stats_breakdown[INST_ACC_R][HIT_RESERVED] = 0
	Total_core_cache_stats_breakdown[INST_ACC_R][MISS] = 0
	Total_core_cache_stats_breakdown[INST_ACC_R][RESERVATION_FAIL] = 0
	Total_core_cache_stats_breakdown[INST_ACC_R][SECTOR_MISS] = 0
	Total_core_cache_stats_breakdown[INST_ACC_R][MSHR_HIT] = 0
	Total_core_cache_stats_breakdown[L1_WR_ALLOC_R][HIT] = 0
	Total_core_cache_stats_breakdown[L1_WR_ALLOC_R][HIT_RESERVED] = 0
	Total_core_cache_stats_breakdown[L1_WR_ALLOC_R][MISS] = 0
	Total_core_cache_stats_breakdown[L1_WR_ALLOC_R][RESERVATION_FAIL] = 0
	Total_core_cache_stats_breakdown[L1_WR_ALLOC_R][SECTOR_MISS] = 0
	Total_core_cache_stats_breakdown[L1_WR_ALLOC_R][MSHR_HIT] = 0
	Total_core_cache_stats_breakdown[L2_WR_ALLOC_R][HIT] = 0
	Total_core_cache_stats_breakdown[L2_WR_ALLOC_R][HIT_RESERVED] = 0
	Total_core_cache_stats_breakdown[L2_WR_ALLOC_R][MISS] = 0
	Total_core_cache_stats_breakdown[L2_WR_ALLOC_R][RESERVATION_FAIL] = 0
	Total_core_cache_stats_breakdown[L2_WR_ALLOC_R][SECTOR_MISS] = 0
	Total_core_cache_stats_breakdown[L2_WR_ALLOC_R][MSHR_HIT] = 0

Total_core_cache_fail_stats:
ctas_completed 463, Shader 0 warp_id issue ditsribution:
warp_id:
0, 1, 2, 3, 4, 5, 6, 7, 8, 9, 10, 11, 12, 13, 14, 15, 16, 17, 18, 19, 20, 21, 22, 23, 24, 25, 26, 27, 28, 29, 30, 31, 32, 33, 34, 35, 36, 37, 38, 39, 40, 41, 42, 43, 44, 45, 46, 47, 48, 49, 50, 51, 52, 53, 54, 55, 56, 57, 58, 59, 60, 61, 62, 63, 
distro:
9618, 9639, 9632, 9631, 9672, 9693, 9702, 9673, 9617, 9625, 9640, 9611, 9674, 9679, 9692, 9667, 9641, 9641, 9651, 9635, 9662, 9660, 9670, 9683, 9623, 9620, 9612, 9617, 9672, 9659, 9660, 9663, 9608, 9620, 9606, 9622, 9675, 9686, 9667, 9674, 8650, 8681, 8668, 8675, 8712, 8701, 8687, 8704, 8641, 8670, 8652, 8660, 8707, 8686, 8705, 8678, 8661, 8645, 8654, 8643, 8688, 8715, 8685, 8709, 
gpgpu_n_tot_thrd_icount = 94224728
gpgpu_n_tot_w_icount = 3140992
gpgpu_n_stall_shd_mem = 320025
gpgpu_n_mem_read_local = 0
gpgpu_n_mem_write_local = 0
gpgpu_n_mem_read_global = 359184
gpgpu_n_mem_write_global = 15741
gpgpu_n_mem_texture = 0
gpgpu_n_mem_const = 0
gpgpu_n_load_insn  = 2294040
gpgpu_n_store_insn = 100000
gpgpu_n_shmem_insn = 13071840
gpgpu_n_sstarr_insn = 0
gpgpu_n_tex_insn = 0
gpgpu_n_const_mem_insn = 0
gpgpu_n_param_mem_insn = 0
gpgpu_n_shmem_bkconflict = 0
gpgpu_n_cache_bkconflict = 0
gpgpu_n_intrawarp_mshr_merge = 0
gpgpu_n_cmem_portconflict = 0
gpgpu_stall_shd_mem[c_mem][resource_stall] = 0
gpgpu_stall_shd_mem[s_mem][bk_conf] = 26588
gpgpu_stall_shd_mem[gl_mem][resource_stall] = 0
gpgpu_stall_shd_mem[gl_mem][coal_stall] = 293437
gpgpu_stall_shd_mem[gl_mem][data_port_stall] = 0
gpu_reg_bank_conflict_stalls = 0
Warp Occupancy Distribution:
Stall:1499687	W0_Idle:4472	W0_Scoreboard:111658	W1:0	W2:0	W3:0	W4:392	W5:0	W6:0	W7:0	W8:0	W9:0	W10:0	W11:0	W12:23492	W13:17556	W14:17556	W15:17556	W16:17556	W17:17556	W18:17556	W19:17556	W20:18481	W21:17556	W22:17556	W23:17556	W24:17556	W25:17556	W26:17556	W27:17556	W28:17557	W29:17556	W30:17556	W31:17556	W32:2705760
single_issue_nums: WS0:569546	WS1:569508	WS2:569450	WS3:569706	
dual_issue_nums: WS0:107851	WS1:107870	WS2:107899	WS3:107771	
traffic_breakdown_coretomem[GLOBAL_ACC_R] = 2873472 {8:359184,}
traffic_breakdown_coretomem[GLOBAL_ACC_W] = 629640 {40:15741,}
traffic_breakdown_memtocore[GLOBAL_ACC_R] = 14367360 {40:359184,}
traffic_breakdown_memtocore[GLOBAL_ACC_W] = 125928 {8:15741,}
maxmflatency = 462 
max_icnt2mem_latency = 83 
maxmrqlatency = 144 
max_icnt2sh_latency = 160 
averagemflatency = 248 
avg_icnt2mem_latency = 7 
avg_mrq_latency = 10 
avg_icnt2sh_latency = 13 
mrq_lat_table:123937 	9644 	9912 	22914 	82233 	14076 	1186 	3 	0 	0 	0 	0 	0 	0 	0 	0 	0 	0 	0 	0 	0 	0 	0 	0 	0 	0 	0 	0 	0 	0 	0 	0 	
dq_lat_table:0 	0 	0 	0 	0 	0 	0 	0 	0 	0 	0 	0 	0 	0 	0 	0 	0 	0 	0 	0 	0 	0 	0 	0 	0 	0 	0 	0 	0 	0 	0 	0 	
mf_lat_table:0 	0 	0 	0 	0 	0 	0 	141548 	233377 	0 	0 	0 	0 	0 	0 	0 	0 	0 	0 	0 	0 	0 	0 	0 	0 	0 	0 	0 	0 	0 	0 	0 	
icnt2mem_lat_table:0 	0 	285982 	86853 	998 	952 	140 	0 	0 	0 	0 	0 	0 	0 	0 	0 	0 	0 	0 	0 	0 	0 	0 	0 	
icnt2sh_lat_table:0 	0 	126223 	140737 	83463 	23683 	806 	13 	0 	0 	0 	0 	0 	0 	0 	0 	0 	0 	0 	0 	0 	0 	0 	0 	
mf_lat_pw_table:0 	0 	0 	0 	0 	0 	0 	327 	30 	0 	0 	0 	0 	0 	0 	0 	0 	0 	0 	0 	0 	0 	0 	0 	0 	0 	0 	0 	0 	0 	0 	0 	
maximum concurrent accesses to same row:
dram[0]:        76        72        19        24        28        24        84        36        64        48        56        52        52        36        68        64 
dram[1]:        76        76        56        76        32        20        76        68        64        80        64        72        72        60        60        48 
dram[2]:        44        52        20        28        24        20        84        80        56        60        84        88        80        72        96        64 
dram[3]:        80        60        19        23        20        17        64        40        56        72        84        52        48        48        76        80 
dram[4]:        92        76        40        60        32        28        52        92        56        64        52        48        52        76        88        60 
dram[5]:        64        52        72        28        27        32        56        84        48        84        52        64        76        84        64        56 
dram[6]:        52        68        84        56        20        20        56        88        68        20        60        60        68        56        60        52 
dram[7]:        60        60        20        24        32        24        60        48        64        76        60        68        52        68        32        76 
dram[8]:        36        56        76        80        20        20        44        56        52        68        92        80        48        76        56        48 
dram[9]:        48        84        84        16        16        36        52        64       108        76        64        68        88        72        36        76 
dram[10]:        64        68        56        44        28        28        92        72        88        52        76        60        72        80        72        44 
dram[11]:        76        44        40        23        20        19        48        40        44        68        44        80        60        40        60       100 
maximum service time to same row:
dram[0]:     53882     57005     34608     37312     42596     43464     57301     47365     52831     56542     76073     45436     55456     52711     49322     40683 
dram[1]:     50919     56032     37459     44322     35675     31089     72213     58076     53673     55579     44267     41229     61167     54222     78048     41042 
dram[2]:     59270     56321     34997     38811     47195     43440     36970     74387     59654     55518     76013     57726     47944     51881     62404     51133 
dram[3]:     53808     45280     36550     34410     33430     36089     36897     57858     57438     53210     57613     47041     53738     54176     46685     39143 
dram[4]:     53773     57975     38765     35065     48539     41778     56496     57763     59158     58121     77528     73436     61080     57012     47016     63562 
dram[5]:     53092     56663     46994     35002     41485     38163     55833     71926     49388     59263     45260     77596     57109     58810     76259     53485 
dram[6]:     57353     54583     38903     39321     33677     33585     70734     70752     53997     54401     41771     41356     52370     57568     75748     72876 
dram[7]:     55306     53190     35250     35679     35047     35661     64608     64599     59552     55042     40813     45808     44811     54720     42633     43681 
dram[8]:     50127     52780     35724     34939     35072     37101     71890     46858     55354     64732     59149     76364     51732     58244     75971     43886 
dram[9]:     56049     51910     47411     37376     51054     51674     57714     45777     53774     57058     43053     47021     57544     56537     43762     78103 
dram[10]:     51356     53985     38918     48581     37539     35073     53390     37050     60459     49477     74120     59247     54144     55434     59064     51791 
dram[11]:     57118     57585     37604     36723     36353     40649     36982     72585     58644     62565     57172     61837     52279     53794     69102     59962 
average row accesses per activate:
dram[0]:  5.103571  5.398305  4.899254  4.938628  4.853282  5.045603  4.719697  4.757936  4.984906  4.782609  4.668942  4.993127  5.033088  4.561838  4.880795  4.908451 
dram[1]:  5.482213  4.837638  5.003759  4.780488  4.757143  4.517482  4.622517  4.751634  4.976654  4.909434  5.181818  4.811111  5.133803  4.974026  5.026022  4.741935 
dram[2]:  5.000000  4.806897  4.867596  4.922481  4.619926  4.676806  4.762542  4.745583  4.485805  4.883459  4.952381  4.910781  4.972696  4.814103  4.765734  4.909396 
dram[3]:  5.321285  5.433962  5.158915  4.810036  5.073944  4.686275  4.935153  4.632302  4.672131  4.692053  4.745454  5.014441  4.765079  5.063380  5.090226  4.847826 
dram[4]:  4.832765  4.913357  4.573477  4.996364  4.836601  4.810909  4.507936  4.895623  4.817857  4.876866  4.626667  4.498246  5.146429  5.064748  4.988848  5.086143 
dram[5]:  5.334711  4.843972  4.918699  5.207885  4.937037  4.881423  4.744828  4.441380  4.508039  4.973077  4.953238  5.028470  4.636364  5.120567  4.909747  5.028470 
dram[6]:  4.945652  4.809701  5.149797  4.624585  4.875940  4.608392  4.753472  4.795053  4.572993  4.368932  4.947369  4.802013  4.907850  4.777778  4.878327  5.048443 
dram[7]:  4.659864  5.020548  4.679442  5.083045  5.080139  4.916667  4.936567  4.514107  4.964844  4.580745  4.966330  4.639344  5.149091  4.747509  4.921052  5.100695 
dram[8]:  5.326613  4.996198  5.427451  5.151021  4.685513  4.751825  4.804081  4.787645  4.581081  4.801418  5.204698  5.248227  5.026217  5.201465  4.894737  4.763803 
dram[9]:  4.774546  5.213115  5.156667  5.227273  4.791667  4.621428  4.642857  4.652459  5.194552  4.751701  4.737828  5.054237  5.021202  4.992481  4.872483  4.862319 
dram[10]:  4.927481  4.943708  4.888087  4.917526  4.783688  4.879121  4.598705  4.767974  4.666667  4.333333  4.808777  4.697819  5.366301  5.361624  4.562701  4.757463 
dram[11]:  5.179104  4.890977  4.902174  4.829959  4.674825  5.098540  4.505085  4.636691  4.922794  4.733577  4.681159  4.954887  4.728188  4.616162  4.956923  5.063433 
average row locality = 263905/54177 = 4.871163
number of total memory accesses made:
dram[0]:         0         0         0         0         0         0         0         0         0         0         0         0         0         0         0         0 
dram[1]:         0         0         0         0         0         0         0         0         0         0         0         0         0         0         0         0 
dram[2]:         0         0         0         0         0         0         0         0         0         0         0         0         0         0         0         0 
dram[3]:         0         0         0         0         0         0         0         0         0         0         0         0         0         0         0         0 
dram[4]:         0         0         0         0         0         0         0         0         0         0         0         0         0         0         0         0 
dram[5]:         0         0         0         0         0         0         0         0         0         0         0         0         0         0         0         0 
dram[6]:         0         0         0         0         0         0         0         0         0         0         0         0         0         0         0         0 
dram[7]:         0         0         0         0         0         0         0         0         0         0         0         0         0         0         0         0 
dram[8]:         0         0         0         0         0         0         0         0         0         0         0         0         0         0         0         0 
dram[9]:         0         0         0         0         0         0         0         0         0         0         0         0         0         0         0         0 
dram[10]:         0         0         0         0         0         0         0         0         0         0         0         0         0         0         0         0 
dram[11]:         0         0         0         0         0         0         0         0         0         0         0         0         0         0         0         0 
total accesses: 0
min_bank_accesses = 0!
min_chip_accesses = 0!
number of total read accesses:
dram[0]:      1420      1259      1313      1368      1256      1547      1231      1181      1298      1305      1344      1444      1350      1274      1469      1391 
dram[1]:      1375      1300      1329      1174      1329      1289      1378      1440      1262      1278      1466      1287      1441      1516      1351      1466 
dram[2]:      1382      1387      1397      1270      1251      1228      1407      1333      1403      1283      1338      1301      1438      1490      1358      1460 
dram[3]:      1318      1433      1331      1342      1436      1430      1432      1332      1411      1399      1286      1377      1483      1420      1348      1331 
dram[4]:      1404      1355      1274      1372      1476      1318      1401      1439      1334      1289      1375      1272      1428      1395      1341      1357 
dram[5]:      1283      1358      1209      1453      1331      1234      1359      1272      1384      1278      1362      1393      1317      1431      1358      1410 
dram[6]:      1359      1275      1270      1390      1291      1315      1353      1344      1236      1335      1395      1409      1427      1406      1281      1459 
dram[7]:      1358      1450      1343      1469      1457      1531      1311      1426      1259      1457      1465      1399      1406      1419      1492      1466 
dram[8]:      1308      1307      1382      1260      1323      1295      1169      1221      1348      1346      1533      1464      1326      1406      1394      1552 
dram[9]:      1307      1266      1546      1380      1378      1294      1343      1404      1322      1379      1247      1471      1409      1312      1448      1342 
dram[10]:      1281      1485      1352      1429      1345      1329      1401      1440      1520      1468      1522      1494      1441      1438      1415      1274 
dram[11]:      1376      1294      1353      1193      1333      1394      1315      1267      1323      1283      1275      1299      1398      1356      1609      1354 
total dram reads = 262019
bank skew: 1609/1169 = 1.38
chip skew: 22708/21422 = 1.06
number of total write accesses:
dram[0]:        36        60         0         0         4         8        60        72        92        60        96        36        76        68        20        12 
dram[1]:        48        44         8         8        12        12        72        56        68        92        64        48        68        64         4        16 
dram[2]:        32        28         0         0         4         8        68        40        76        64        56        80        76        48        20        12 
dram[3]:        28        28         0         0        20        16        56        64        56        72        76        48        72        72        24        28 
dram[4]:        48        24         8         8        16        20        76        60        60        72        52        40        52        52         4         4 
dram[5]:        32        32         4         0         8         4        68        64        72        60        60        80        36        52         8        12 
dram[6]:        24        56         8         8        24        12        64        52        68        60        60        88        44        52         8         0 
dram[7]:        48        64         0         0         4        12        48        56        48        72        40        64        40        40        16        12 
dram[8]:        52        28         8         8        12        28        32        76        32        32        72        64        64        56         4         4 
dram[9]:        24        24         4         0         8         0        88        60        52        72        72        80        48        64        16         0 
dram[10]:        40        32         8         8        16        12        80        76        80        56        48        56        96        60        16         4 
dram[11]:        48        28         0         0        16        12        56        88        64        56        68        76        44        60         8        12 
total dram writes = 7544
min_bank_accesses = 0!
chip skew: 700/564 = 1.24
average mf latency per bank:
dram[0]:        341       331       347       347       346       353       341       334       329       331       333       338       331       334       344       345
dram[1]:        339       337       347       343       351       354       337       345       332       328       337       334       337       337       344       344
dram[2]:        338       342       347       353       352       347       339       337       331       332       336       337       337       340       338       341
dram[3]:        339       338       349       349       342       347       341       337       336       333       334       345       336       336       345       353
dram[4]:        341       340       346       352       344       347       343       338       337       336       337       337       335       338       350       342
dram[5]:       1330       344       354       345       347       350       337       342       335       336       344       334       337       336       349       346
dram[6]:        336       338       346       344       348       349       333       338       332       334       336       337       338       339       348       347
dram[7]:        338       337       348       350       351       344       340       342       336       335       337       335       339       344       342       342
dram[8]:        334       338       339       344       349       343       333       339       339       335       335       339       336       337       348       344
dram[9]:        342       339       354       355       348       350       335       338       332       336       338       333       336       333       341       349
dram[10]:        337       338       343       345       349       347       336       334       331       336       336       339       332       337       347       345
dram[11]:        336       343       346       348       349       346       340       334       336       334       334       330       340       336       344       339
maximum mf latency per bank:
dram[0]:        340       346       364       349       334       356       386       354       351       341       341       322       332       351       364       338
dram[1]:        375       344       341       333       329       392       366       398       341       350       361       338       339       354       325       359
dram[2]:        340       366       346       342       359       333       415       407       339       343       343       331       385       361       339       349
dram[3]:        347       333       345       326       359       344       411       382       330       344       346       357       342       323       370       343
dram[4]:        333       344       327       361       369       362       382       380       360       383       358       338       328       352       346       340
dram[5]:        346       343       330       342       370       381       432       462       375       366       346       354       331       372       339       318
dram[6]:        338       347       368       346       346       361       382       382       331       334       357       346       354       341       348       331
dram[7]:        353       363       346       353       337       341       390       400       346       356       354       359       352       375       332       345
dram[8]:        337       355       330       336       362       347       345       362       344       375       365       349       353       345       350       333
dram[9]:        342       367       341       363       351       338       379       369       341       337       344       335       367       327       367       355
dram[10]:        341       338       345       330       349       348       376       396       362       351       348       376       348       363       362       333
dram[11]:        329       336       344       351       358       343       395       376       358       355       341       324       344       399       361       336
Memory Partition 0: 
Cache L2_bank_000:
MSHR contents

Cache L2_bank_001:
MSHR contents

In Dram Latency Queue (total = 0): 
DRAM[0]: 16 bks, busW=4 BL=8 CL=16, tRRD=8 tCCD=2, tRCD=16 tRAS=37 tRP=16 tRC=52
n_cmd=323840 n_nop=292930 n_act=4409 n_pre=4393 n_ref_event=0 n_req=21625 n_rd=21450 n_rd_L2_A=0 n_write=0 n_wr_bk=700 bw_util=0.1368
n_activity=218091 dram_eff=0.2031
bk0: 1420a 310781i bk1: 1259a 312630i bk2: 1313a 311537i bk3: 1368a 311186i bk4: 1256a 311970i bk5: 1547a 309484i bk6: 1231a 311307i bk7: 1181a 311916i bk8: 1298a 311211i bk9: 1305a 311237i bk10: 1344a 310025i bk11: 1444a 310275i bk12: 1350a 310993i bk13: 1274a 310899i bk14: 1469a 309705i bk15: 1391a 310752i 

------------------------------------------------------------------------

Row_Buffer_Locality = 0.796116
Row_Buffer_Locality_read = 0.798601
Row_Buffer_Locality_write = 0.491429
Bank_Level_Parallism = 1.358613
Bank_Level_Parallism_Col = 1.204851
Bank_Level_Parallism_Ready = 1.038679
write_to_read_ratio_blp_rw_average = 0.033377
GrpLevelPara = 1.188023 

BW Util details:
bwutil = 0.136796 
total_CMD = 323840 
util_bw = 44300 
Wasted_Col = 77946 
Wasted_Row = 45900 
Idle = 155694 

BW Util Bottlenecks: 
RCDc_limit = 60794 
RCDWRc_limit = 689 
WTRc_limit = 2777 
RTWc_limit = 1685 
CCDLc_limit = 25097 
rwq = 0 
CCDLc_limit_alone = 24926 
WTRc_limit_alone = 2680 
RTWc_limit_alone = 1611 

Commands details: 
total_CMD = 323840 
n_nop = 292930 
Read = 21450 
Write = 0 
L2_Alloc = 0 
L2_WB = 700 
n_act = 4409 
n_pre = 4393 
n_ref = 0 
n_req = 21625 
total_req = 22150 

Dual Bus Interface Util: 
issued_total_row = 8802 
issued_total_col = 22150 
Row_Bus_Util =  0.027180 
CoL_Bus_Util = 0.068398 
Either_Row_CoL_Bus_Util = 0.095448 
Issued_on_Two_Bus_Simul_Util = 0.000130 
issued_two_Eff = 0.001359 
queue_avg = 1.150868 


dram_util_bins: 0 0 0 0 0 0 0 0 0 0
dram_eff_bins: 0 0 0 0 0 0 0 0 0 0
mrqq: max=21 avg=1.15087
Memory Partition 1: 
Cache L2_bank_002:
MSHR contents

Cache L2_bank_003:
MSHR contents

In Dram Latency Queue (total = 1): 
Ready @ 183611 -   mf: uid=1947308, sid4294967295:w4294967295, part=1, addr=0xadf90080, store, size=128, L2_WRBK  status = IN_PARTITION_DRAM_LATENCY_QUEUE (183511), 
DRAM[1]: 16 bks, busW=4 BL=8 CL=16, tRRD=8 tCCD=2, tRCD=16 tRAS=37 tRP=16 tRC=52
n_cmd=323840 n_nop=292611 n_act=4459 n_pre=4443 n_ref_event=0 n_req=21852 n_rd=21681 n_rd_L2_A=0 n_write=0 n_wr_bk=684 bw_util=0.1381
n_activity=220519 dram_eff=0.2028
bk0: 1375a 311808i bk1: 1300a 311209i bk2: 1329a 311629i bk3: 1174a 312836i bk4: 1329a 311099i bk5: 1289a 310942i bk6: 1378a 309531i bk7: 1440a 309643i bk8: 1262a 311442i bk9: 1278a 311236i bk10: 1466a 310134i bk11: 1287a 311335i bk12: 1441a 310225i bk13: 1516a 309266i bk14: 1351a 311560i bk15: 1466a 309829i 

------------------------------------------------------------------------

Row_Buffer_Locality = 0.795945
Row_Buffer_Locality_read = 0.798718
Row_Buffer_Locality_write = 0.444444
Bank_Level_Parallism = 1.361660
Bank_Level_Parallism_Col = 0.000000
Bank_Level_Parallism_Ready = 1.036118
write_to_read_ratio_blp_rw_average = 0.000000
GrpLevelPara = 0.000000 

BW Util details:
bwutil = 0.138124 
total_CMD = 323840 
util_bw = 44730 
Wasted_Col = 78459 
Wasted_Row = 46443 
Idle = 154208 

BW Util Bottlenecks: 
RCDc_limit = 61150 
RCDWRc_limit = 726 
WTRc_limit = 2563 
RTWc_limit = 1802 
CCDLc_limit = 25211 
rwq = 0 
CCDLc_limit_alone = 25025 
WTRc_limit_alone = 2469 
RTWc_limit_alone = 1710 

Commands details: 
total_CMD = 323840 
n_nop = 292611 
Read = 21681 
Write = 0 
L2_Alloc = 0 
L2_WB = 684 
n_act = 4459 
n_pre = 4443 
n_ref = 0 
n_req = 21852 
total_req = 22365 

Dual Bus Interface Util: 
issued_total_row = 8902 
issued_total_col = 22365 
Row_Bus_Util =  0.027489 
CoL_Bus_Util = 0.069062 
Either_Row_CoL_Bus_Util = 0.096433 
Issued_on_Two_Bus_Simul_Util = 0.000117 
issued_two_Eff = 0.001217 
queue_avg = 1.177551 


dram_util_bins: 0 0 0 0 0 0 0 0 0 0
dram_eff_bins: 0 0 0 0 0 0 0 0 0 0
mrqq: max=17 avg=1.17755
Memory Partition 2: 
Cache L2_bank_004:
MSHR contents

Cache L2_bank_005:
MSHR contents

In Dram Latency Queue (total = 0): 
DRAM[2]: 16 bks, busW=4 BL=8 CL=16, tRRD=8 tCCD=2, tRCD=16 tRAS=37 tRP=16 tRC=52
n_cmd=323840 n_nop=292476 n_act=4543 n_pre=4527 n_ref_event=0 n_req=21879 n_rd=21726 n_rd_L2_A=0 n_write=0 n_wr_bk=612 bw_util=0.138
n_activity=222820 dram_eff=0.2005
bk0: 1382a 310999i bk1: 1387a 310488i bk2: 1397a 310619i bk3: 1270a 311954i bk4: 1251a 311555i bk5: 1228a 311975i bk6: 1407a 309849i bk7: 1333a 310917i bk8: 1403a 308970i bk9: 1283a 311134i bk10: 1338a 310947i bk11: 1301a 311262i bk12: 1438a 309989i bk13: 1490a 309177i bk14: 1358a 310698i bk15: 1460a 310147i 

------------------------------------------------------------------------

Row_Buffer_Locality = 0.792358
Row_Buffer_Locality_read = 0.795038
Row_Buffer_Locality_write = 0.411765
Bank_Level_Parallism = 1.353846
Bank_Level_Parallism_Col = 1.199106
Bank_Level_Parallism_Ready = 1.034976
write_to_read_ratio_blp_rw_average = 0.031612
GrpLevelPara = 1.183177 

BW Util details:
bwutil = 0.137957 
total_CMD = 323840 
util_bw = 44676 
Wasted_Col = 80079 
Wasted_Row = 47893 
Idle = 151192 

BW Util Bottlenecks: 
RCDc_limit = 62603 
RCDWRc_limit = 653 
WTRc_limit = 2102 
RTWc_limit = 1912 
CCDLc_limit = 25692 
rwq = 0 
CCDLc_limit_alone = 25551 
WTRc_limit_alone = 1988 
RTWc_limit_alone = 1885 

Commands details: 
total_CMD = 323840 
n_nop = 292476 
Read = 21726 
Write = 0 
L2_Alloc = 0 
L2_WB = 612 
n_act = 4543 
n_pre = 4527 
n_ref = 0 
n_req = 21879 
total_req = 22338 

Dual Bus Interface Util: 
issued_total_row = 9070 
issued_total_col = 22338 
Row_Bus_Util =  0.028008 
CoL_Bus_Util = 0.068979 
Either_Row_CoL_Bus_Util = 0.096850 
Issued_on_Two_Bus_Simul_Util = 0.000136 
issued_two_Eff = 0.001403 
queue_avg = 1.213871 


dram_util_bins: 0 0 0 0 0 0 0 0 0 0
dram_eff_bins: 0 0 0 0 0 0 0 0 0 0
mrqq: max=19 avg=1.21387
Memory Partition 3: 
Cache L2_bank_006:
MSHR contents

Cache L2_bank_007:
MSHR contents

In Dram Latency Queue (total = 0): 
DRAM[3]: 16 bks, busW=4 BL=8 CL=16, tRRD=8 tCCD=2, tRCD=16 tRAS=37 tRP=16 tRC=52
n_cmd=323840 n_nop=292073 n_act=4525 n_pre=4509 n_ref_event=0 n_req=22274 n_rd=22109 n_rd_L2_A=0 n_write=0 n_wr_bk=660 bw_util=0.1406
n_activity=220504 dram_eff=0.2065
bk0: 1318a 312161i bk1: 1433a 311536i bk2: 1331a 312065i bk3: 1342a 311350i bk4: 1436a 310831i bk5: 1430a 309897i bk6: 1432a 309863i bk7: 1332a 310132i bk8: 1411a 309644i bk9: 1399a 309918i bk10: 1286a 310680i bk11: 1377a 310668i bk12: 1483a 308928i bk13: 1420a 310362i bk14: 1348a 311296i bk15: 1331a 311038i 

------------------------------------------------------------------------

Row_Buffer_Locality = 0.796848
Row_Buffer_Locality_read = 0.799086
Row_Buffer_Locality_write = 0.496970
Bank_Level_Parallism = 1.379862
Bank_Level_Parallism_Col = 1.219195
Bank_Level_Parallism_Ready = 1.042505
write_to_read_ratio_blp_rw_average = 0.032932
GrpLevelPara = 1.201910 

BW Util details:
bwutil = 0.140619 
total_CMD = 323840 
util_bw = 45538 
Wasted_Col = 78791 
Wasted_Row = 45813 
Idle = 153698 

BW Util Bottlenecks: 
RCDc_limit = 62019 
RCDWRc_limit = 598 
WTRc_limit = 2874 
RTWc_limit = 2052 
CCDLc_limit = 25353 
rwq = 0 
CCDLc_limit_alone = 25130 
WTRc_limit_alone = 2732 
RTWc_limit_alone = 1971 

Commands details: 
total_CMD = 323840 
n_nop = 292073 
Read = 22109 
Write = 0 
L2_Alloc = 0 
L2_WB = 660 
n_act = 4525 
n_pre = 4509 
n_ref = 0 
n_req = 22274 
total_req = 22769 

Dual Bus Interface Util: 
issued_total_row = 9034 
issued_total_col = 22769 
Row_Bus_Util =  0.027896 
CoL_Bus_Util = 0.070309 
Either_Row_CoL_Bus_Util = 0.098095 
Issued_on_Two_Bus_Simul_Util = 0.000111 
issued_two_Eff = 0.001133 
queue_avg = 1.206969 


dram_util_bins: 0 0 0 0 0 0 0 0 0 0
dram_eff_bins: 0 0 0 0 0 0 0 0 0 0
mrqq: max=19 avg=1.20697
Memory Partition 4: 
Cache L2_bank_008:
MSHR contents

Cache L2_bank_009:
MSHR contents

In Dram Latency Queue (total = 0): 
DRAM[4]: 16 bks, busW=4 BL=8 CL=16, tRRD=8 tCCD=2, tRCD=16 tRAS=37 tRP=16 tRC=52
n_cmd=323840 n_nop=292407 n_act=4544 n_pre=4528 n_ref_event=0 n_req=21979 n_rd=21830 n_rd_L2_A=0 n_write=0 n_wr_bk=596 bw_util=0.1385
n_activity=221451 dram_eff=0.2025
bk0: 1404a 310106i bk1: 1355a 311188i bk2: 1274a 311285i bk3: 1372a 311347i bk4: 1476a 309781i bk5: 1318a 311232i bk6: 1401a 309110i bk7: 1439a 309621i bk8: 1334a 310508i bk9: 1289a 311128i bk10: 1375a 309637i bk11: 1272a 310805i bk12: 1428a 310588i bk13: 1395a 310761i bk14: 1341a 311499i bk15: 1357a 311630i 

------------------------------------------------------------------------

Row_Buffer_Locality = 0.793257
Row_Buffer_Locality_read = 0.795786
Row_Buffer_Locality_write = 0.422819
Bank_Level_Parallism = 1.376347
Bank_Level_Parallism_Col = 1.211423
Bank_Level_Parallism_Ready = 1.039229
write_to_read_ratio_blp_rw_average = 0.033519
GrpLevelPara = 1.195229 

BW Util details:
bwutil = 0.138500 
total_CMD = 323840 
util_bw = 44852 
Wasted_Col = 78947 
Wasted_Row = 46637 
Idle = 153404 

BW Util Bottlenecks: 
RCDc_limit = 62263 
RCDWRc_limit = 636 
WTRc_limit = 2096 
RTWc_limit = 1950 
CCDLc_limit = 25341 
rwq = 0 
CCDLc_limit_alone = 25183 
WTRc_limit_alone = 2052 
RTWc_limit_alone = 1836 

Commands details: 
total_CMD = 323840 
n_nop = 292407 
Read = 21830 
Write = 0 
L2_Alloc = 0 
L2_WB = 596 
n_act = 4544 
n_pre = 4528 
n_ref = 0 
n_req = 21979 
total_req = 22426 

Dual Bus Interface Util: 
issued_total_row = 9072 
issued_total_col = 22426 
Row_Bus_Util =  0.028014 
CoL_Bus_Util = 0.069250 
Either_Row_CoL_Bus_Util = 0.097063 
Issued_on_Two_Bus_Simul_Util = 0.000201 
issued_two_Eff = 0.002068 
queue_avg = 1.218923 


dram_util_bins: 0 0 0 0 0 0 0 0 0 0
dram_eff_bins: 0 0 0 0 0 0 0 0 0 0
mrqq: max=21 avg=1.21892
Memory Partition 5: 
Cache L2_bank_010:
MSHR contents

Cache L2_bank_011:
MSHR contents

In Dram Latency Queue (total = 0): 
DRAM[5]: 16 bks, busW=4 BL=8 CL=16, tRRD=8 tCCD=2, tRCD=16 tRAS=37 tRP=16 tRC=52
n_cmd=323840 n_nop=293056 n_act=4409 n_pre=4393 n_ref_event=0 n_req=21580 n_rd=21432 n_rd_L2_A=0 n_write=0 n_wr_bk=592 bw_util=0.136
n_activity=217661 dram_eff=0.2024
bk0: 1283a 312610i bk1: 1358a 310931i bk2: 1209a 312737i bk3: 1453a 311189i bk4: 1331a 311501i bk5: 1234a 312458i bk6: 1359a 310021i bk7: 1272a 310533i bk8: 1384a 309220i bk9: 1278a 311348i bk10: 1362a 310630i bk11: 1393a 310602i bk12: 1317a 310647i bk13: 1431a 310707i bk14: 1358a 310995i bk15: 1410a 311022i 

------------------------------------------------------------------------

Row_Buffer_Locality = 0.795737
Row_Buffer_Locality_read = 0.798899
Row_Buffer_Locality_write = 0.337838
Bank_Level_Parallism = 1.366381
Bank_Level_Parallism_Col = 1.213469
Bank_Level_Parallism_Ready = 1.040126
write_to_read_ratio_blp_rw_average = 0.031035
GrpLevelPara = 1.195846 

BW Util details:
bwutil = 0.136018 
total_CMD = 323840 
util_bw = 44048 
Wasted_Col = 76643 
Wasted_Row = 45591 
Idle = 157558 

BW Util Bottlenecks: 
RCDc_limit = 60288 
RCDWRc_limit = 690 
WTRc_limit = 2379 
RTWc_limit = 1832 
CCDLc_limit = 24637 
rwq = 0 
CCDLc_limit_alone = 24498 
WTRc_limit_alone = 2294 
RTWc_limit_alone = 1778 

Commands details: 
total_CMD = 323840 
n_nop = 293056 
Read = 21432 
Write = 0 
L2_Alloc = 0 
L2_WB = 592 
n_act = 4409 
n_pre = 4393 
n_ref = 0 
n_req = 21580 
total_req = 22024 

Dual Bus Interface Util: 
issued_total_row = 8802 
issued_total_col = 22024 
Row_Bus_Util =  0.027180 
CoL_Bus_Util = 0.068009 
Either_Row_CoL_Bus_Util = 0.095059 
Issued_on_Two_Bus_Simul_Util = 0.000130 
issued_two_Eff = 0.001364 
queue_avg = 1.148867 


dram_util_bins: 0 0 0 0 0 0 0 0 0 0
dram_eff_bins: 0 0 0 0 0 0 0 0 0 0
mrqq: max=18 avg=1.14887
Memory Partition 6: 
Cache L2_bank_012:
MSHR contents

Cache L2_bank_013:
MSHR contents

In Dram Latency Queue (total = 0): 
DRAM[6]: 16 bks, busW=4 BL=8 CL=16, tRRD=8 tCCD=2, tRCD=16 tRAS=37 tRP=16 tRC=52
[...]
write_to_read_ratio_blp_rw_average = 0.044080
GrpLevelPara = 1.206333 

BW Util details:
bwutil = 0.140049 
total_CMD = 1596927 
util_bw = 223648 
Wasted_Col = 403013 
Wasted_Row = 232284 
Idle = 737982 

BW Util Bottlenecks: 
RCDc_limit = 318035 
RCDWRc_limit = 3289 
WTRc_limit = 19189 
RTWc_limit = 12965 
CCDLc_limit = 128608 
rwq = 0 
CCDLc_limit_alone = 126584 
WTRc_limit_alone = 18016 
RTWc_limit_alone = 12114 

Commands details: 
total_CMD = 1596927 
n_nop = 1438840 
Read = 107248 
Write = 0 
L2_Alloc = 0 
L2_WB = 4576 
n_act = 23263 
n_pre = 23247 
n_ref = 0 
n_req = 108392 
total_req = 111824 

Dual Bus Interface Util: 
issued_total_row = 46510 
issued_total_col = 111824 
Row_Bus_Util =  0.029125 
CoL_Bus_Util = 0.070024 
Either_Row_CoL_Bus_Util = 0.098995 
Issued_on_Two_Bus_Simul_Util = 0.000155 
issued_two_Eff = 0.001562 
queue_avg = 1.254144 


dram_util_bins: 0 0 0 0 0 0 0 0 0 0
dram_eff_bins: 0 0 0 0 0 0 0 0 0 0
mrqq: max=28 avg=1.25414
Memory Partition 7: 
Cache L2_bank_014:
MSHR contents

Cache L2_bank_015:
MSHR contents

In Dram Latency Queue (total = 0): 
DRAM[7]: 16 bks, busW=4 BL=8 CL=16, tRRD=8 tCCD=2, tRCD=16 tRAS=37 tRP=16 tRC=52
n_cmd=1596927 n_nop=1437102 n_act=23493 n_pre=23477 n_ref_event=0 n_req=109719 n_rd=108592 n_rd_L2_A=0 n_write=0 n_wr_bk=4508 bw_util=0.1416
n_activity=1111853 dram_eff=0.2034
bk0: 6876a 1527872i bk1: 6648a 1530658i bk2: 6969a 1527040i bk3: 7037a 1527596i bk4: 7082a 1526737i bk5: 6722a 1528943i bk6: 6827a 1527235i bk7: 6971a 1526685i bk8: 6439a 1529677i bk9: 6709a 1526094i bk10: 6613a 1530206i bk11: 6824a 1528357i bk12: 6706a 1529797i bk13: 6673a 1529214i bk14: 6620a 1528443i bk15: 6876a 1527283i 

------------------------------------------------------------------------

Row_Buffer_Locality = 0.785880
Row_Buffer_Locality_read = 0.787913
Row_Buffer_Locality_write = 0.590062
Bank_Level_Parallism = 1.396042
Bank_Level_Parallism_Col = 1.225452
Bank_Level_Parallism_Ready = 1.039590
write_to_read_ratio_blp_rw_average = 0.043544
GrpLevelPara = 1.205114 

BW Util details:
bwutil = 0.141647 
total_CMD = 1596927 
util_bw = 226200 
Wasted_Col = 408002 
Wasted_Row = 234535 
Idle = 728190 

BW Util Bottlenecks: 
RCDc_limit = 321547 
RCDWRc_limit = 3370 
WTRc_limit = 19077 
RTWc_limit = 13126 
CCDLc_limit = 130916 
rwq = 0 
CCDLc_limit_alone = 128897 
WTRc_limit_alone = 17896 
RTWc_limit_alone = 12288 

Commands details: 
total_CMD = 1596927 
n_nop = 1437102 
Read = 108592 
Write = 0 
L2_Alloc = 0 
L2_WB = 4508 
n_act = 23493 
n_pre = 23477 
n_ref = 0 
n_req = 109719 
total_req = 113100 

Dual Bus Interface Util: 
issued_total_row = 46970 
issued_total_col = 113100 
Row_Bus_Util =  0.029413 
CoL_Bus_Util = 0.070824 
Either_Row_CoL_Bus_Util = 0.100083 
Issued_on_Two_Bus_Simul_Util = 0.000153 
issued_two_Eff = 0.001533 
queue_avg = 1.269302 


dram_util_bins: 0 0 0 0 0 0 0 0 0 0
dram_eff_bins: 0 0 0 0 0 0 0 0 0 0
mrqq: max=26 avg=1.2693
Memory Partition 8: 
Cache L2_bank_016:
MSHR contents

Cache L2_bank_017:
MSHR contents

In Dram Latency Queue (total = 0): 
DRAM[8]: 16 bks, busW=4 BL=8 CL=16, tRRD=8 tCCD=2, tRCD=16 tRAS=37 tRP=16 tRC=52
n_cmd=1596927 n_nop=1438811 n_act=23238 n_pre=23222 n_ref_event=0 n_req=108572 n_rd=107451 n_rd_L2_A=0 n_write=0 n_wr_bk=4484 bw_util=0.1402
n_activity=1102852 dram_eff=0.203
bk0: 6725a 1530490i bk1: 6644a 1530780i bk2: 6870a 1529767i bk3: 6788a 1528237i bk4: 6643a 1528245i bk5: 6600a 1529650i bk6: 6248a 1534113i bk7: 6596a 1530172i bk8: 6780a 1526224i bk9: 6749a 1527078i bk10: 7039a 1527336i bk11: 6773a 1527543i bk12: 6435a 1530290i bk13: 7264a 1524274i bk14: 6517a 1530168i bk15: 6780a 1528553i 

------------------------------------------------------------------------

Row_Buffer_Locality = 0.785976
Row_Buffer_Locality_read = 0.788201
Row_Buffer_Locality_write = 0.572703
Bank_Level_Parallism = 1.398904
Bank_Level_Parallism_Col = 1.228260
Bank_Level_Parallism_Ready = 1.041006
write_to_read_ratio_blp_rw_average = 0.044191
GrpLevelPara = 1.207652 

BW Util details:
bwutil = 0.140188 
total_CMD = 1596927 
util_bw = 223870 
Wasted_Col = 402311 
Wasted_Row = 232477 
Idle = 738269 

BW Util Bottlenecks: 
RCDc_limit = 317080 
RCDWRc_limit = 3462 
WTRc_limit = 18307 
RTWc_limit = 13079 
CCDLc_limit = 128863 
rwq = 0 
CCDLc_limit_alone = 126971 
WTRc_limit_alone = 17331 
RTWc_limit_alone = 12163 

Commands details: 
total_CMD = 1596927 
n_nop = 1438811 
Read = 107451 
Write = 0 
L2_Alloc = 0 
L2_WB = 4484 
n_act = 23238 
n_pre = 23222 
n_ref = 0 
n_req = 108572 
total_req = 111935 

Dual Bus Interface Util: 
issued_total_row = 46460 
issued_total_col = 111935 
Row_Bus_Util =  0.029093 
CoL_Bus_Util = 0.070094 
Either_Row_CoL_Bus_Util = 0.099013 
Issued_on_Two_Bus_Simul_Util = 0.000175 
issued_two_Eff = 0.001765 
queue_avg = 1.263943 


dram_util_bins: 0 0 0 0 0 0 0 0 0 0
dram_eff_bins: 0 0 0 0 0 0 0 0 0 0
mrqq: max=28 avg=1.26394
Memory Partition 9: 
Cache L2_bank_018:
MSHR contents

Cache L2_bank_019:
MSHR contents

In Dram Latency Queue (total = 0): 
DRAM[9]: 16 bks, busW=4 BL=8 CL=16, tRRD=8 tCCD=2, tRCD=16 tRAS=37 tRP=16 tRC=52
n_cmd=1596927 n_nop=1438262 n_act=23154 n_pre=23138 n_ref_event=0 n_req=108763 n_rd=107468 n_rd_L2_A=0 n_write=0 n_wr_bk=5180 bw_util=0.1411
n_activity=1100294 dram_eff=0.2048
bk0: 6485a 1531214i bk1: 6619a 1530272i bk2: 7168a 1526340i bk3: 6849a 1528806i bk4: 6693a 1529061i bk5: 6522a 1531183i bk6: 6840a 1526213i bk7: 6765a 1528991i bk8: 6701a 1526760i bk9: 6830a 1526853i bk10: 6586a 1527974i bk11: 6709a 1530143i bk12: 6835a 1528550i bk13: 6459a 1531728i bk14: 6734a 1528535i bk15: 6673a 1528346i 

------------------------------------------------------------------------

Row_Buffer_Locality = 0.787115
Row_Buffer_Locality_read = 0.789593
Row_Buffer_Locality_write = 0.581467
Bank_Level_Parallism = 1.401834
Bank_Level_Parallism_Col = 1.229954
Bank_Level_Parallism_Ready = 1.039560
write_to_read_ratio_blp_rw_average = 0.049386
GrpLevelPara = 1.210000 

BW Util details:
bwutil = 0.141081 
total_CMD = 1596927 
util_bw = 225296 
Wasted_Col = 401989 
Wasted_Row = 231152 
Idle = 738490 

BW Util Bottlenecks: 
RCDc_limit = 314576 
RCDWRc_limit = 3866 
WTRc_limit = 21211 
RTWc_limit = 14388 
CCDLc_limit = 129815 
rwq = 0 
CCDLc_limit_alone = 127598 
WTRc_limit_alone = 20002 
RTWc_limit_alone = 13380 

Commands details: 
total_CMD = 1596927 
n_nop = 1438262 
Read = 107468 
Write = 0 
L2_Alloc = 0 
L2_WB = 5180 
n_act = 23154 
n_pre = 23138 
n_ref = 0 
n_req = 108763 
total_req = 112648 

Dual Bus Interface Util: 
issued_total_row = 46292 
issued_total_col = 112648 
Row_Bus_Util =  0.028988 
CoL_Bus_Util = 0.070540 
Either_Row_CoL_Bus_Util = 0.099356 
Issued_on_Two_Bus_Simul_Util = 0.000172 
issued_two_Eff = 0.001733 
queue_avg = 1.259611 


dram_util_bins: 0 0 0 0 0 0 0 0 0 0
dram_eff_bins: 0 0 0 0 0 0 0 0 0 0
mrqq: max=27 avg=1.25961
Memory Partition 10: 
Cache L2_bank_020:
MSHR contents

Cache L2_bank_021:
MSHR contents

In Dram Latency Queue (total = 0): 
DRAM[10]: 16 bks, busW=4 BL=8 CL=16, tRRD=8 tCCD=2, tRCD=16 tRAS=37 tRP=16 tRC=52
n_cmd=1596927 n_nop=1436024 n_act=23633 n_pre=23617 n_ref_event=0 n_req=110252 n_rd=109027 n_rd_L2_A=0 n_write=0 n_wr_bk=4900 bw_util=0.1427
n_activity=1114838 dram_eff=0.2044
bk0: 6645a 1530548i bk1: 6742a 1529690i bk2: 6848a 1527354i bk3: 6889a 1528266i bk4: 6740a 1530285i bk5: 6919a 1526786i bk6: 6944a 1525494i bk7: 6769a 1527759i bk8: 6900a 1523450i bk9: 6787a 1525484i bk10: 7040a 1522973i bk11: 6753a 1528569i bk12: 6897a 1529208i bk13: 6758a 1530046i bk14: 6862a 1525849i bk15: 6534a 1528903i 

------------------------------------------------------------------------

Row_Buffer_Locality = 0.785646
Row_Buffer_Locality_read = 0.787979
Row_Buffer_Locality_write = 0.577959
Bank_Level_Parallism = 1.401918
Bank_Level_Parallism_Col = 1.228218
Bank_Level_Parallism_Ready = 1.038678
write_to_read_ratio_blp_rw_average = 0.047075
GrpLevelPara = 1.205395 

BW Util details:
bwutil = 0.142683 
total_CMD = 1596927 
util_bw = 227854 
Wasted_Col = 410396 
Wasted_Row = 235102 
Idle = 723575 

BW Util Bottlenecks: 
RCDc_limit = 322107 
RCDWRc_limit = 3690 
WTRc_limit = 20772 
RTWc_limit = 14458 
CCDLc_limit = 131808 
rwq = 0 
CCDLc_limit_alone = 129301 
WTRc_limit_alone = 19448 
RTWc_limit_alone = 13275 

Commands details: 
total_CMD = 1596927 
n_nop = 1436024 
Read = 109027 
Write = 0 
L2_Alloc = 0 
L2_WB = 4900 
n_act = 23633 
n_pre = 23617 
n_ref = 0 
n_req = 110252 
total_req = 113927 

Dual Bus Interface Util: 
issued_total_row = 47250 
issued_total_col = 113927 
Row_Bus_Util =  0.029588 
CoL_Bus_Util = 0.071341 
Either_Row_CoL_Bus_Util = 0.100758 
Issued_on_Two_Bus_Simul_Util = 0.000172 
issued_two_Eff = 0.001703 
queue_avg = 1.294448 


dram_util_bins: 0 0 0 0 0 0 0 0 0 0
dram_eff_bins: 0 0 0 0 0 0 0 0 0 0
mrqq: max=22 avg=1.29445
Memory Partition 11: 
Cache L2_bank_022:
MSHR contents

Cache L2_bank_023:
MSHR contents

In Dram Latency Queue (total = 0): 
DRAM[11]: 16 bks, busW=4 BL=8 CL=16, tRRD=8 tCCD=2, tRCD=16 tRAS=37 tRP=16 tRC=52
n_cmd=1596927 n_nop=1437603 n_act=23375 n_pre=23359 n_ref_event=0 n_req=109332 n_rd=108168 n_rd_L2_A=0 n_write=0 n_wr_bk=4656 bw_util=0.1413
n_activity=1106686 dram_eff=0.2039
bk0: 6865a 1528104i bk1: 6776a 1528133i bk2: 6570a 1531559i bk3: 6639a 1529193i bk4: 6816a 1527084i bk5: 6857a 1528428i bk6: 6702a 1529808i bk7: 6681a 1529792i bk8: 6714a 1527849i bk9: 6711a 1529243i bk10: 6718a 1528383i bk11: 6813a 1528295i bk12: 6754a 1528215i bk13: 6718a 1528644i bk14: 7024a 1524963i bk15: 6810a 1528354i 

------------------------------------------------------------------------

Row_Buffer_Locality = 0.786202
Row_Buffer_Locality_read = 0.788181
Row_Buffer_Locality_write = 0.602234
Bank_Level_Parallism = 1.403212
Bank_Level_Parallism_Col = 1.231458
Bank_Level_Parallism_Ready = 1.041356
write_to_read_ratio_blp_rw_average = 0.044592
GrpLevelPara = 1.210757 

BW Util details:
bwutil = 0.141301 
total_CMD = 1596927 
util_bw = 225648 
Wasted_Col = 403744 
Wasted_Row = 232079 
Idle = 735456 

BW Util Bottlenecks: 
RCDc_limit = 318758 
RCDWRc_limit = 3247 
WTRc_limit = 20298 
RTWc_limit = 13265 
CCDLc_limit = 129309 
rwq = 0 
CCDLc_limit_alone = 127326 
WTRc_limit_alone = 19127 
RTWc_limit_alone = 12453 

Commands details: 
total_CMD = 1596927 
n_nop = 1437603 
Read = 108168 
Write = 0 
L2_Alloc = 0 
L2_WB = 4656 
n_act = 23375 
n_pre = 23359 
n_ref = 0 
n_req = 109332 
total_req = 112824 

Dual Bus Interface Util: 
issued_total_row = 46734 
issued_total_col = 112824 
Row_Bus_Util =  0.029265 
CoL_Bus_Util = 0.070651 
Either_Row_CoL_Bus_Util = 0.099769 
Issued_on_Two_Bus_Simul_Util = 0.000147 
issued_two_Eff = 0.001469 
queue_avg = 1.270532 


dram_util_bins: 0 0 0 0 0 0 0 0 0 0
dram_eff_bins: 0 0 0 0 0 0 0 0 0 0
mrqq: max=25 avg=1.27053

========= L2 cache stats =========
L2_cache_bank[0]: Access = 74056, Miss = 56800, Miss_rate = 0.767, Pending_hits = 11274, Reservation_fails = 0
L2_cache_bank[1]: Access = 74709, Miss = 57281, Miss_rate = 0.767, Pending_hits = 11489, Reservation_fails = 0
L2_cache_bank[2]: Access = 75733, Miss = 58132, Miss_rate = 0.768, Pending_hits = 11504, Reservation_fails = 0
L2_cache_bank[3]: Access = 75787, Miss = 57988, Miss_rate = 0.765, Pending_hits = 11496, Reservation_fails = 0
L2_cache_bank[4]: Access = 74940, Miss = 57378, Miss_rate = 0.766, Pending_hits = 11451, Reservation_fails = 0
L2_cache_bank[5]: Access = 73894, Miss = 56709, Miss_rate = 0.767, Pending_hits = 11331, Reservation_fails = 0
L2_cache_bank[6]: Access = 75202, Miss = 57564, Miss_rate = 0.765, Pending_hits = 11430, Reservation_fails = 0
L2_cache_bank[7]: Access = 74966, Miss = 57421, Miss_rate = 0.766, Pending_hits = 11490, Reservation_fails = 0
L2_cache_bank[8]: Access = 74991, Miss = 57376, Miss_rate = 0.765, Pending_hits = 11456, Reservation_fails = 0
L2_cache_bank[9]: Access = 74527, Miss = 57069, Miss_rate = 0.766, Pending_hits = 11301, Reservation_fails = 0
L2_cache_bank[10]: Access = 120402, Miss = 57028, Miss_rate = 0.474, Pending_hits = 11403, Reservation_fails = 0
L2_cache_bank[11]: Access = 75430, Miss = 57899, Miss_rate = 0.768, Pending_hits = 11552, Reservation_fails = 0
L2_cache_bank[12]: Access = 74756, Miss = 57104, Miss_rate = 0.764, Pending_hits = 11442, Reservation_fails = 0
L2_cache_bank[13]: Access = 73554, Miss = 56374, Miss_rate = 0.766, Pending_hits = 11191, Reservation_fails = 0
L2_cache_bank[14]: Access = 75863, Miss = 57977, Miss_rate = 0.764, Pending_hits = 11555, Reservation_fails = 0
L2_cache_bank[15]: Access = 74085, Miss = 56752, Miss_rate = 0.766, Pending_hits = 11327, Reservation_fails = 0
L2_cache_bank[16]: Access = 73838, Miss = 56634, Miss_rate = 0.767, Pending_hits = 11223, Reservation_fails = 0
L2_cache_bank[17]: Access = 74249, Miss = 56823, Miss_rate = 0.765, Pending_hits = 11311, Reservation_fails = 0
L2_cache_bank[18]: Access = 75062, Miss = 57592, Miss_rate = 0.767, Pending_hits = 11316, Reservation_fails = 0
L2_cache_bank[19]: Access = 74267, Miss = 56940, Miss_rate = 0.767, Pending_hits = 11363, Reservation_fails = 0
L2_cache_bank[20]: Access = 75944, Miss = 58147, Miss_rate = 0.766, Pending_hits = 11499, Reservation_fails = 0
L2_cache_bank[21]: Access = 75016, Miss = 57523, Miss_rate = 0.767, Pending_hits = 11371, Reservation_fails = 0
L2_cache_bank[22]: Access = 74989, Miss = 57546, Miss_rate = 0.767, Pending_hits = 11358, Reservation_fails = 0
L2_cache_bank[23]: Access = 74212, Miss = 56947, Miss_rate = 0.767, Pending_hits = 11410, Reservation_fails = 0
L2_total_cache_accesses = 1840472
L2_total_cache_misses = 1375004
L2_total_cache_miss_rate = 0.7471
L2_total_cache_pending_hits = 273543
L2_total_cache_reservation_fails = 0
L2_total_cache_breakdown:
	L2_cache_stats_breakdown[GLOBAL_ACC_R][HIT] = 191925
	L2_cache_stats_breakdown[GLOBAL_ACC_R][HIT_RESERVED] = 273543
	L2_cache_stats_breakdown[GLOBAL_ACC_R][MISS] = 325001
	L2_cache_stats_breakdown[GLOBAL_ACC_R][RESERVATION_FAIL] = 0
	L2_cache_stats_breakdown[GLOBAL_ACC_R][SECTOR_MISS] = 971673
	L2_cache_stats_breakdown[GLOBAL_ACC_R][MSHR_HIT] = 273543
	L2_cache_stats_breakdown[LOCAL_ACC_R][HIT] = 0
	L2_cache_stats_breakdown[LOCAL_ACC_R][HIT_RESERVED] = 0
	L2_cache_stats_breakdown[LOCAL_ACC_R][MISS] = 0
	L2_cache_stats_breakdown[LOCAL_ACC_R][RESERVATION_FAIL] = 0
	L2_cache_stats_breakdown[LOCAL_ACC_R][SECTOR_MISS] = 0
	L2_cache_stats_breakdown[LOCAL_ACC_R][MSHR_HIT] = 0
	L2_cache_stats_breakdown[CONST_ACC_R][HIT] = 0
	L2_cache_stats_breakdown[CONST_ACC_R][HIT_RESERVED] = 0
	L2_cache_stats_breakdown[CONST_ACC_R][MISS] = 0
	L2_cache_stats_breakdown[CONST_ACC_R][RESERVATION_FAIL] = 0
	L2_cache_stats_breakdown[CONST_ACC_R][SECTOR_MISS] = 0
	L2_cache_stats_breakdown[CONST_ACC_R][MSHR_HIT] = 0
	L2_cache_stats_breakdown[TEXTURE_ACC_R][HIT] = 0
	L2_cache_stats_breakdown[TEXTURE_ACC_R][HIT_RESERVED] = 0
	L2_cache_stats_breakdown[TEXTURE_ACC_R][MISS] = 0
	L2_cache_stats_breakdown[TEXTURE_ACC_R][RESERVATION_FAIL] = 0
	L2_cache_stats_breakdown[TEXTURE_ACC_R][SECTOR_MISS] = 0
	L2_cache_stats_breakdown[TEXTURE_ACC_R][MSHR_HIT] = 0
	L2_cache_stats_breakdown[GLOBAL_ACC_W][HIT] = 0
	L2_cache_stats_breakdown[GLOBAL_ACC_W][HIT_RESERVED] = 0
	L2_cache_stats_breakdown[GLOBAL_ACC_W][MISS] = 15625
	L2_cache_stats_breakdown[GLOBAL_ACC_W][RESERVATION_FAIL] = 0
	L2_cache_stats_breakdown[GLOBAL_ACC_W][SECTOR_MISS] = 62705
	L2_cache_stats_breakdown[GLOBAL_ACC_W][MSHR_HIT] = 0
	L2_cache_stats_breakdown[LOCAL_ACC_W][HIT] = 0
	L2_cache_stats_breakdown[LOCAL_ACC_W][HIT_RESERVED] = 0
	L2_cache_stats_breakdown[LOCAL_ACC_W][MISS] = 0
	L2_cache_stats_breakdown[LOCAL_ACC_W][RESERVATION_FAIL] = 0
	L2_cache_stats_breakdown[LOCAL_ACC_W][SECTOR_MISS] = 0
	L2_cache_stats_breakdown[LOCAL_ACC_W][MSHR_HIT] = 0
	L2_cache_stats_breakdown[L1_WRBK_ACC][HIT] = 0
	L2_cache_stats_breakdown[L1_WRBK_ACC][HIT_RESERVED] = 0
	L2_cache_stats_breakdown[L1_WRBK_ACC][MISS] = 0
	L2_cache_stats_breakdown[L1_WRBK_ACC][RESERVATION_FAIL] = 0
	L2_cache_stats_breakdown[L1_WRBK_ACC][SECTOR_MISS] = 0
	L2_cache_stats_breakdown[L1_WRBK_ACC][MSHR_HIT] = 0
	L2_cache_stats_breakdown[L2_WRBK_ACC][HIT] = 0
	L2_cache_stats_breakdown[L2_WRBK_ACC][HIT_RESERVED] = 0
	L2_cache_stats_breakdown[L2_WRBK_ACC][MISS] = 0
	L2_cache_stats_breakdown[L2_WRBK_ACC][RESERVATION_FAIL] = 0
	L2_cache_stats_breakdown[L2_WRBK_ACC][SECTOR_MISS] = 0
	L2_cache_stats_breakdown[L2_WRBK_ACC][MSHR_HIT] = 0
	L2_cache_stats_breakdown[INST_ACC_R][HIT] = 0
	L2_cache_stats_breakdown[INST_ACC_R][HIT_RESERVED] = 0
	L2_cache_stats_breakdown[INST_ACC_R][MISS] = 0
	L2_cache_stats_breakdown[INST_ACC_R][RESERVATION_FAIL] = 0
	L2_cache_stats_breakdown[INST_ACC_R][SECTOR_MISS] = 0
	L2_cache_stats_breakdown[INST_ACC_R][MSHR_HIT] = 0
	L2_cache_stats_breakdown[L1_WR_ALLOC_R][HIT] = 0
	L2_cache_stats_breakdown[L1_WR_ALLOC_R][HIT_RESERVED] = 0
	L2_cache_stats_breakdown[L1_WR_ALLOC_R][MISS] = 0
	L2_cache_stats_breakdown[L1_WR_ALLOC_R][RESERVATION_FAIL] = 0
	L2_cache_stats_breakdown[L1_WR_ALLOC_R][SECTOR_MISS] = 0
	L2_cache_stats_breakdown[L1_WR_ALLOC_R][MSHR_HIT] = 0
	L2_cache_stats_breakdown[L2_WR_ALLOC_R][HIT] = 0
	L2_cache_stats_breakdown[L2_WR_ALLOC_R][HIT_RESERVED] = 0
	L2_cache_stats_breakdown[L2_WR_ALLOC_R][MISS] = 0
	L2_cache_stats_breakdown[L2_WR_ALLOC_R][RESERVATION_FAIL] = 0
	L2_cache_stats_breakdown[L2_WR_ALLOC_R][SECTOR_MISS] = 0
	L2_cache_stats_breakdown[L2_WR_ALLOC_R][MSHR_HIT] = 0
	L2_cache_stats_breakdown[GLOBAL_ACC_R][TOTAL_ACCESS] = 2035685
	L2_cache_stats_breakdown[GLOBAL_ACC_W][TOTAL_ACCESS] = 78330
L2_total_cache_reservation_fail_breakdown:
L2_cache_data_port_util = 0.009
L2_cache_fill_port_util = 0.060

icnt_total_pkts_mem_to_simt=1840472
icnt_total_pkts_simt_to_mem=1840472
LD_mem_lat_dist  0 0 0 0 0 0 0 0 0 0 0 0 0 0 0 0 0 0 0 0 0 0 0 0 0 0 0
ST_mem_lat_dist  0 0 0 0 0 0 0 0 0 0 0 0 0 0 0 0 0 0 0 0 0 0 0 0 0 0 0
----------------------------Interconnect-DETAILS--------------------------------
Class 0:
Packet latency average = 6.47639
	minimum = 5
	maximum = 105
Network latency average = 6.47602
	minimum = 5
	maximum = 105
Slowest packet = 1502757
Flit latency average = 6.47602
	minimum = 5
	maximum = 105
Slowest flit = 1502757
Fragmentation average = 0
	minimum = 0
	maximum = 0
Injected packet rate average = 0.0782061
	minimum = 0 (at node 30)
	maximum = 0.34069 (at node 3)
Accepted packet rate average = 0.0782061
	minimum = 0 (at node 30)
	maximum = 0.34069 (at node 3)
Injected flit rate average = 0.0782061
	minimum = 0 (at node 30)
	maximum = 0.34069 (at node 3)
Accepted flit rate average= 0.0782061
	minimum = 0 (at node 30)
	maximum = 0.34069 (at node 3)
Injected packet length average = 1
Accepted packet length average = 1
Total in-flight flits = 0 (0 measured)
====== Overall Traffic Statistics ======
====== Traffic class 0 ======
Packet latency average = 6.50324 (5 samples)
	minimum = 5 (5 samples)
	maximum = 101.8 (5 samples)
Network latency average = 6.50298 (5 samples)
	minimum = 5 (5 samples)
	maximum = 101.8 (5 samples)
Flit latency average = 6.50298 (5 samples)
	minimum = 5 (5 samples)
	maximum = 101.8 (5 samples)
Fragmentation average = 0 (5 samples)
	minimum = 0 (5 samples)
	maximum = 0 (5 samples)
Injected packet rate average = 0.0784978 (5 samples)
	minimum = 0 (5 samples)
	maximum = 0.34216 (5 samples)
Accepted packet rate average = 0.0784978 (5 samples)
	minimum = 0 (5 samples)
	maximum = 0.34216 (5 samples)
Injected flit rate average = 0.0784978 (5 samples)
	minimum = 0 (5 samples)
	maximum = 0.34216 (5 samples)
Accepted flit rate average = 0.0784978 (5 samples)
	minimum = 0 (5 samples)
	maximum = 0.34216 (5 samples)
Injected packet size average = 1 (5 samples)
Accepted packet size average = 1 (5 samples)
Hops average = 1 (5 samples)
----------------------------END-of-Interconnect-DETAILS-------------------------


gpgpu_simulation_time = 0 days, 0 hrs, 4 min, 43 sec (283 sec)
gpgpu_simulation_rate = 1648364 (inst/sec)
gpgpu_simulation_rate = 3198 (cycle/sec)
gpgpu_silicon_slowdown = 443089x
GPGPU-Sim: *** simulation thread exiting ***
GPGPU-Sim: *** exit detected ***
