Skipping setup_environment - already set
doing: export -n PTX_SIM_USE_PTX_FILE
doing: export LD_LIBRARY_PATH=/home/htran197/accel-sim-framework/gpu-simulator/../accelwattch_runs/pascal_sass_sim/gpgpu-sim-builds/accelsim-commit-f27c5430b80f8b73e4027c2c6d1a1db58dd4adea_modified_9.0:/home/htran197/accel-sim-framework/gpu-simulator/gpgpu-sim/lib/gcc-8.4.0/cuda-11000/release::/usr/lib/x86_64-linux-gnu/slurm-wlm/:/usr/lib/x86_64-linux-gnu/slurm-wlm/
doing: cd /home/htran197/accel-sim-framework/gpu-simulator/../accelwattch_runs/pascal_sass_sim/hotspot-rodinia-3.1/1024_2_2___data_temp_1024___data_power_1024_output_out/TITANX-Accelwattch_SASS_SIM
doing: export OPENCL_CURRENT_TEST_PATH=/home/htran197/accel-sim-framework/gpu-simulator/../accelwattch_runs/pascal_sass_sim/hotspot-rodinia-3.1/1024_2_2___data_temp_1024___data_power_1024_output_out/TITANX-Accelwattch_SASS_SIM
doing: export OPENCL_REMOTE_GPU_HOST=REPLACE_REMOTE_HOST
doing 
doing: export PATH=/home/htran197/anaconda3/envs/python2/bin:/home/htran197/anaconda3/bin:/usr/local/cuda-11.0/bin:/usr/local/cuda/bin:/home/htran197/.vscode-server/bin/6261075646f055b99068d3688932416f2346dd3b/bin/remote-cli:/home/htran197/anaconda3/condabin:/home/htran197/accel-sim-framework/gpu-simulator/gpgpu-sim/bin:/usr/local/cuda-11.0/bin:/home/htran197/anaconda3/bin:/usr/local/cuda-11.0/bin:/usr/local/cuda/bin:/usr/local/sbin:/usr/local/bin:/usr/sbin:/usr/bin:/sbin:/bin:/usr/games:/usr/local/games:/snap/bin:/usr/local/bin
doing export CUDA_LAUNCH_BLOCKING=1
doing:  /home/htran197/accel-sim-framework/gpu-simulator/../accelwattch_runs/pascal_sass_sim/gpgpu-sim-builds/accelsim-commit-f27c5430b80f8b73e4027c2c6d1a1db58dd4adea_modified_9.0/accel-sim.out  -config ./gpgpusim.config -trace ./traces/kernelslist.g


        *** GPGPU-Sim Simulator Version 4.2.0  [build gpgpu-sim_git-commit-971dd69e8a6c355c8cc4c8bd997db51376ff520a_modified_0.0] ***


GPGPU-Sim: Configuration options:

-save_embedded_ptx                      0 # saves ptx files embedded in binary as <n>.ptx
-keep                                   0 # keep intermediate files created by GPGPU-Sim when interfacing with external programs
-gpgpu_ptx_save_converted_ptxplus                    0 # Saved converted ptxplus to a file
-gpgpu_occupancy_sm_number                   62 # The SM number to pass to ptxas when getting register usage for computing GPU occupancy. This parameter is required in the config.
-ptx_opcode_latency_int      4,13,4,5,145,32 # Opcode latencies for integers <ADD,MAX,MUL,MAD,DIV,SHFL>Default 1,1,19,25,145,32
-ptx_opcode_latency_fp          4,13,4,4,39 # Opcode latencies for single precision floating points <ADD,MAX,MUL,MAD,DIV>Default 1,1,1,1,30
-ptx_opcode_latency_dp         8,19,8,8,330 # Opcode latencies for double precision floating points <ADD,MAX,MUL,MAD,DIV>Default 8,8,8,8,335
-ptx_opcode_latency_sfu                   20 # Opcode latencies for SFU instructionsDefault 8
-ptx_opcode_latency_tesnor                   64 # Opcode latencies for Tensor instructionsDefault 64
-ptx_opcode_initiation_int          1,1,1,1,4,4 # Opcode initiation intervals for integers <ADD,MAX,MUL,MAD,DIV,SHFL>Default 1,1,4,4,32,4
-ptx_opcode_initiation_fp            1,2,1,1,4 # Opcode initiation intervals for single precision floating points <ADD,MAX,MUL,MAD,DIV>Default 1,1,1,1,5
-ptx_opcode_initiation_dp          8,8,8,8,130 # Opcode initiation intervals for double precision floating points <ADD,MAX,MUL,MAD,DIV>Default 8,8,8,8,130
-ptx_opcode_initiation_sfu                    4 # Opcode initiation intervals for sfu instructionsDefault 8
-ptx_opcode_initiation_tensor                   64 # Opcode initiation intervals for tensor instructionsDefault 64
-cdp_latency         7200,8000,100,12000,1600 # CDP API latency <cudaStreamCreateWithFlags, cudaGetParameterBufferV2_init_perWarp, cudaGetParameterBufferV2_perKernel, cudaLaunchDeviceV2_init_perWarp, cudaLaunchDevicV2_perKernel>Default 7200,8000,100,12000,1600
-network_mode                           1 # Interconnection network mode
-inter_config_file   config_pascal_islip.icnt # Interconnection network config file
-icnt_in_buffer_limit                   64 # in_buffer_limit
-icnt_out_buffer_limit                   64 # out_buffer_limit
-icnt_subnets                           2 # subnets
-icnt_arbiter_algo                      1 # arbiter_algo
-icnt_verbose                           0 # inct_verbose
-icnt_grant_cycles                      1 # grant_cycles
-gpgpu_ptx_use_cuobjdump                    1 # Use cuobjdump to extract ptx and sass from binaries
-gpgpu_experimental_lib_support                    0 # Try to extract code from cuda libraries [Broken because of unknown cudaGetExportTable]
-checkpoint_option                      0 #  checkpointing flag (0 = no checkpoint)
-checkpoint_kernel                      1 #  checkpointing during execution of which kernel (1- 1st kernel)
-checkpoint_CTA                         0 #  checkpointing after # of CTA (< less than total CTA)
-resume_option                          0 #  resume flag (0 = no resume)
-resume_kernel                          0 #  Resume from which kernel (1= 1st kernel)
-resume_CTA                             0 #  resume from which CTA 
-checkpoint_CTA_t                       0 #  resume from which CTA 
-checkpoint_insn_Y                      0 #  resume from which CTA 
-gpgpu_ptx_convert_to_ptxplus                    0 # Convert SASS (native ISA) to ptxplus and run ptxplus
-gpgpu_ptx_force_max_capability                   61 # Force maximum compute capability
-gpgpu_ptx_inst_debug_to_file                    0 # Dump executed instructions' debug information to file
-gpgpu_ptx_inst_debug_file       inst_debug.txt # Executed instructions' debug output file
-gpgpu_ptx_inst_debug_thread_uid                    1 # Thread UID for executed instructions' debug output
-gpgpu_simd_model                       1 # 1 = post-dominator
-gpgpu_shader_core_pipeline              2048:32 # shader core pipeline config, i.e., {<nthread>:<warpsize>}
-gpgpu_tex_cache:l1  N:16:128:24,L:R:m:N:L,T:128:4,128:2 # per-shader L1 texture cache  (READ-ONLY) config  {<nsets>:<bsize>:<assoc>,<rep>:<wr>:<alloc>:<wr_alloc>,<mshr>:<N>:<merge>,<mq>:<rf>}
-gpgpu_const_cache:l1 N:128:64:2,L:R:f:N:L,S:2:64,4 # per-shader L1 constant memory cache  (READ-ONLY) config  {<nsets>:<bsize>:<assoc>,<rep>:<wr>:<alloc>:<wr_alloc>,<mshr>:<N>:<merge>,<mq>} 
-gpgpu_cache:il1     N:8:128:4,L:R:f:N:L,S:2:48,4 # shader L1 instruction cache config  {<nsets>:<bsize>:<assoc>,<rep>:<wr>:<alloc>:<wr_alloc>,<mshr>:<N>:<merge>,<mq>} 
-gpgpu_cache:dl1     S:4:128:96,L:L:s:N:L,A:256:8,16:0,32 # per-shader L1 data cache config  {<nsets>:<bsize>:<assoc>,<rep>:<wr>:<alloc>:<wr_alloc>,<mshr>:<N>:<merge>,<mq> | none}
-gpgpu_l1_banks                         2 # The number of L1 cache banks
-gpgpu_l1_banks_byte_interleaving                   32 # l1 banks byte interleaving granularity
-gpgpu_l1_banks_hashing_function                    0 # l1 banks hashing function
-gpgpu_l1_latency                      82 # L1 Hit Latency
-gpgpu_smem_latency                    24 # smem Latency
-gpgpu_cache:dl1PrefL1 S:4:128:96,L:L:s:N:L,A:256:8,16:0,32 # per-shader L1 data cache config  {<nsets>:<bsize>:<assoc>,<rep>:<wr>:<alloc>:<wr_alloc>,<mshr>:<N>:<merge>,<mq> | none}
-gpgpu_cache:dl1PrefShared S:4:128:96,L:L:s:N:L,A:256:8,16:0,32 # per-shader L1 data cache config  {<nsets>:<bsize>:<assoc>,<rep>:<wr>:<alloc>:<wr_alloc>,<mshr>:<N>:<merge>,<mq> | none}
-gpgpu_gmem_skip_L1D                    1 # global memory access skip L1D cache (implements -Xptxas -dlcm=cg, default=no skip)
-gpgpu_perfect_mem                      0 # enable perfect memory mode (no cache miss)
-n_regfile_gating_group                    4 # group of lanes that should be read/written together)
-gpgpu_clock_gated_reg_file                    0 # enable clock gated reg file for power calculations
-gpgpu_clock_gated_lanes                    1 # enable clock gated lanes for power calculations
-gpgpu_shader_registers                65536 # Number of registers per shader core. Limits number of concurrent CTAs. (default 8192)
-gpgpu_registers_per_block                 8192 # Maximum number of registers per CTA. (default 8192)
-gpgpu_ignore_resources_limitation                    1 # gpgpu_ignore_resources_limitation (default 0)
-gpgpu_shader_cta                      32 # Maximum number of concurrent CTAs in shader (default 8)
-gpgpu_num_cta_barriers                   16 # Maximum number of named barriers per CTA (default 16)
-gpgpu_n_clusters                       6 # number of processing clusters
-gpgpu_n_cores_per_cluster                    1 # number of simd cores per cluster
-gpgpu_n_cluster_ejection_buffer_size                   32 # number of packets in ejection buffer
-gpgpu_n_ldst_response_buffer_size                    2 # number of response packets in ld/st unit ejection buffer
-gpgpu_shmem_per_block                49152 # Size of shared memory per thread block or CTA (default 48kB)
-gpgpu_shmem_size                   98304 # Size of shared memory per shader core (default 16kB)
-gpgpu_adaptive_cache_config                    0 # adaptive_cache_config
-gpgpu_shmem_sizeDefault                98304 # Size of shared memory per shader core (default 16kB)
-gpgpu_shmem_size_PrefL1                98304 # Size of shared memory per shader core (default 16kB)
-gpgpu_shmem_size_PrefShared                98304 # Size of shared memory per shader core (default 16kB)
-gpgpu_shmem_num_banks                   32 # Number of banks in the shared memory in each shader core (default 16)
-gpgpu_shmem_limited_broadcast                    0 # Limit shared memory to do one broadcast per cycle (default on)
-gpgpu_shmem_warp_parts                    1 # Number of portions a warp is divided into for shared memory bank conflict check 
-gpgpu_mem_unit_ports                    1 # The number of memory transactions allowed per core cycle
-gpgpu_shmem_warp_parts                    1 # Number of portions a warp is divided into for shared memory bank conflict check 
-gpgpu_warpdistro_shader                   -1 # Specify which shader core to collect the warp size distribution from
-gpgpu_warp_issue_shader                    0 # Specify which shader core to collect the warp issue distribution from
-gpgpu_local_mem_map                    1 # Mapping from local memory space address to simulated GPU physical address space (default = enabled)
-gpgpu_num_reg_banks                   16 # Number of register banks (default = 8)
-gpgpu_reg_bank_use_warp_id                    0 # Use warp ID in mapping registers to banks (default = off)
-gpgpu_sub_core_model                    1 # Sub Core Volta/Pascal model (default = off)
-gpgpu_enable_specialized_operand_collector                    0 # enable_specialized_operand_collector
-gpgpu_operand_collector_num_units_sp                    4 # number of collector units (default = 4)
-gpgpu_operand_collector_num_units_dp                    0 # number of collector units (default = 0)
-gpgpu_operand_collector_num_units_sfu                    4 # number of collector units (default = 4)
-gpgpu_operand_collector_num_units_int                    0 # number of collector units (default = 0)
-gpgpu_operand_collector_num_units_tensor_core                    4 # number of collector units (default = 4)
-gpgpu_operand_collector_num_units_mem                    2 # number of collector units (default = 2)
-gpgpu_operand_collector_num_units_gen                    8 # number of collector units (default = 0)
-gpgpu_operand_collector_num_in_ports_sp                    1 # number of collector unit in ports (default = 1)
-gpgpu_operand_collector_num_in_ports_dp                    0 # number of collector unit in ports (default = 0)
-gpgpu_operand_collector_num_in_ports_sfu                    1 # number of collector unit in ports (default = 1)
-gpgpu_operand_collector_num_in_ports_int                    0 # number of collector unit in ports (default = 0)
-gpgpu_operand_collector_num_in_ports_tensor_core                    1 # number of collector unit in ports (default = 1)
-gpgpu_operand_collector_num_in_ports_mem                    1 # number of collector unit in ports (default = 1)
-gpgpu_operand_collector_num_in_ports_gen                    8 # number of collector unit in ports (default = 0)
-gpgpu_operand_collector_num_out_ports_sp                    1 # number of collector unit in ports (default = 1)
-gpgpu_operand_collector_num_out_ports_dp                    0 # number of collector unit in ports (default = 0)
-gpgpu_operand_collector_num_out_ports_sfu                    1 # number of collector unit in ports (default = 1)
-gpgpu_operand_collector_num_out_ports_int                    0 # number of collector unit in ports (default = 0)
-gpgpu_operand_collector_num_out_ports_tensor_core                    1 # number of collector unit in ports (default = 1)
-gpgpu_operand_collector_num_out_ports_mem                    1 # number of collector unit in ports (default = 1)
-gpgpu_operand_collector_num_out_ports_gen                    8 # number of collector unit in ports (default = 0)
-gpgpu_coalesce_arch                   61 # Coalescing arch (GT200 = 13, Fermi = 20)
-gpgpu_num_sched_per_core                    4 # Number of warp schedulers per core
-gpgpu_max_insn_issue_per_warp                    2 # Max number of instructions that can be issued per warp in one cycle by scheduler (either 1 or 2)
-gpgpu_dual_issue_diff_exec_units                    1 # should dual issue use two different execution unit resources (Default = 1)
-gpgpu_simt_core_sim_order                    1 # Select the simulation order of cores in a cluster (0=Fix, 1=Round-Robin)
-gpgpu_pipeline_widths 4,0,0,4,4,4,0,0,4,4,8 # Pipeline widths ID_OC_SP,ID_OC_DP,ID_OC_INT,ID_OC_SFU,ID_OC_MEM,OC_EX_SP,OC_EX_DP,OC_EX_INT,OC_EX_SFU,OC_EX_MEM,EX_WB,ID_OC_TENSOR_CORE,OC_EX_TENSOR_CORE
-gpgpu_tensor_core_avail                    0 # Tensor Core Available (default=0)
-gpgpu_num_sp_units                     4 # Number of SP units (default=1)
-gpgpu_num_dp_units                     0 # Number of DP units (default=0)
-gpgpu_num_int_units                    0 # Number of INT units (default=0)
-gpgpu_num_sfu_units                    4 # Number of SF units (default=1)
-gpgpu_num_tensor_core_units                    0 # Number of tensor_core units (default=1)
-gpgpu_num_mem_units                    1 # Number if ldst units (default=1) WARNING: not hooked up to anything
-gpgpu_scheduler                      gto # Scheduler configuration: < lrr | gto | two_level_active > If two_level_active:<num_active_warps>:<inner_prioritization>:<outer_prioritization>For complete list of prioritization values see shader.h enum scheduler_prioritization_typeDefault: gto
-gpgpu_concurrent_kernel_sm                    0 # Support concurrent kernels on a SM (default = disabled)
-gpgpu_perfect_inst_const_cache                    1 # perfect inst and const cache mode, so all inst and const hits in the cache(default = disabled)
-gpgpu_inst_fetch_throughput                    8 # the number of fetched intruction per warp each cycle
-gpgpu_reg_file_port_throughput                    2 # the number ports of the register file
-specialized_unit_1         0,4,4,4,4,BRA # specialized unit config {<enabled>,<num_units>:<latency>:<initiation>,<ID_OC_SPEC>:<OC_EX_SPEC>,<NAME>}
-specialized_unit_2         0,4,4,4,4,BRA # specialized unit config {<enabled>,<num_units>:<latency>:<initiation>,<ID_OC_SPEC>:<OC_EX_SPEC>,<NAME>}
-specialized_unit_3         0,4,4,4,4,BRA # specialized unit config {<enabled>,<num_units>:<latency>:<initiation>,<ID_OC_SPEC>:<OC_EX_SPEC>,<NAME>}
-specialized_unit_4         0,4,4,4,4,BRA # specialized unit config {<enabled>,<num_units>:<latency>:<initiation>,<ID_OC_SPEC>:<OC_EX_SPEC>,<NAME>}
-specialized_unit_5         0,4,4,4,4,BRA # specialized unit config {<enabled>,<num_units>:<latency>:<initiation>,<ID_OC_SPEC>:<OC_EX_SPEC>,<NAME>}
-specialized_unit_6         0,4,4,4,4,BRA # specialized unit config {<enabled>,<num_units>:<latency>:<initiation>,<ID_OC_SPEC>:<OC_EX_SPEC>,<NAME>}
-specialized_unit_7         0,4,4,4,4,BRA # specialized unit config {<enabled>,<num_units>:<latency>:<initiation>,<ID_OC_SPEC>:<OC_EX_SPEC>,<NAME>}
-specialized_unit_8         0,4,4,4,4,BRA # specialized unit config {<enabled>,<num_units>:<latency>:<initiation>,<ID_OC_SPEC>:<OC_EX_SPEC>,<NAME>}
-gpgpu_perf_sim_memcpy                    1 # Fill the L2 cache on memcpy
-gpgpu_simple_dram_model                    0 # simple_dram_model with fixed latency and BW
-gpgpu_dram_scheduler                    1 # 0 = fifo, 1 = FR-FCFS (defaul)
-gpgpu_dram_partition_queues          32:32:32:32 # i2$:$2d:d2$:$2i
-l2_ideal                               0 # Use a ideal L2 cache that always hit
-gpgpu_cache:dl2     S:64:128:16,L:B:m:L:P,A:256:64,16:0,32 # unified banked L2 data cache config  {<nsets>:<bsize>:<assoc>,<rep>:<wr>:<alloc>:<wr_alloc>,<mshr>:<N>:<merge>,<mq>}
-gpgpu_cache:dl2_texture_only                    0 # L2 cache used for texture only
-gpgpu_n_mem                           12 # number of memory modules (e.g. memory controllers) in gpu
-gpgpu_n_sub_partition_per_mchannel                    2 # number of memory subpartition in each memory module
-gpgpu_n_mem_per_ctrlr                    1 # number of memory chips per memory controller
-gpgpu_memlatency_stat                   14 # track and display latency statistics 0x2 enables MC, 0x4 enables queue logs
-gpgpu_frfcfs_dram_sched_queue_size                   64 # 0 = unlimited (default); # entries per chip
-gpgpu_dram_return_queue_size                   64 # 0 = unlimited (default); # entries per chip
-gpgpu_dram_buswidth                    4 # default = 4 bytes (8 bytes per cycle at DDR)
-gpgpu_dram_burst_length                    8 # Burst length of each DRAM request (default = 4 data bus cycle)
-dram_data_command_freq_ratio                    4 # Frequency ratio between DRAM data bus and command bus (default = 2 times, i.e. DDR)
-gpgpu_dram_timing_opt nbk=16:CCD=2:RRD=8:RCD=16:RAS=37:RP=16:RC=52: CL=16:WL=6:CDLR=7:WR=16:nbkgrp=4:CCDL=4:RTPL=3 # DRAM timing parameters = {nbk:tCCD:tRRD:tRCD:tRAS:tRP:tRC:CL:WL:tCDLR:tWR:nbkgrp:tCCDL:tRTPL}
-gpgpu_l2_rop_latency                  120 # ROP queue latency (default 85)
-dram_latency                         100 # DRAM latency (default 30)
-dram_dual_bus_interface                    0 # dual_bus_interface (default = 0) 
-dram_bnk_indexing_policy                    0 # dram_bnk_indexing_policy (0 = normal indexing, 1 = Xoring with the higher bits) (Default = 0)
-dram_bnkgrp_indexing_policy                    1 # dram_bnkgrp_indexing_policy (0 = take higher bits, 1 = take lower bits) (Default = 0)
-dram_seperate_write_queue_enable                    0 # Seperate_Write_Queue_Enable
-dram_write_queue_size             32:28:16 # Write_Queue_Size
-dram_elimnate_rw_turnaround                    0 # elimnate_rw_turnaround i.e set tWTR and tRTW = 0
-icnt_flit_size                        40 # icnt_flit_size
-gpgpu_mem_addr_mapping dramid@8;00000000.00000000.00000000.00000000.0000RRRR.RRRRRRRR.RBBBCCCC.BCCSSSSS # mapping memory address to dram model {dramid@<start bit>;<memory address map>}
-gpgpu_mem_addr_test                    0 # run sweep test to check address mapping for aliased address
-gpgpu_mem_address_mask                    1 # 0 = old addressing mask, 1 = new addressing mask, 2 = new add. mask + flipped bank sel and chip sel bits
-gpgpu_memory_partition_indexing                    4 # 0 = no indexing, 1 = bitwise xoring, 2 = IPoly, 3 = custom indexing
-accelwattch_xml_file accelwattch_sass_sim.xml # AccelWattch XML file
-power_simulation_enabled                    1 # Turn on power simulator (1=On, 0=Off)
-power_per_cycle_dump                    0 # Dump detailed power output each cycle
-hw_perf_file_name            hw_perf.csv # Hardware Performance Statistics file
-hw_perf_bench_name                       # Kernel Name in Hardware Performance Statistics file
-power_simulation_mode                    0 # Switch performance counter input for power simulation (0=Sim, 1=HW, 2=HW-Sim Hybrid)
-dvfs_enabled                           0 # Turn on DVFS for power model
-aggregate_power_stats                    0 # Accumulate power across all kernels
-accelwattch_hybrid_perfsim_L1_RH                    0 # Get L1 Read Hits for Accelwattch-Hybrid from Accel-Sim
-accelwattch_hybrid_perfsim_L1_RM                    0 # Get L1 Read Misses for Accelwattch-Hybrid from Accel-Sim
-accelwattch_hybrid_perfsim_L1_WH                    0 # Get L1 Write Hits for Accelwattch-Hybrid from Accel-Sim
-accelwattch_hybrid_perfsim_L1_WM                    0 # Get L1 Write Misses for Accelwattch-Hybrid from Accel-Sim
-accelwattch_hybrid_perfsim_L2_RH                    0 # Get L2 Read Hits for Accelwattch-Hybrid from Accel-Sim
-accelwattch_hybrid_perfsim_L2_RM                    0 # Get L2 Read Misses for Accelwattch-Hybrid from Accel-Sim
-accelwattch_hybrid_perfsim_L2_WH                    0 # Get L2 Write Hits for Accelwattch-Hybrid from Accel-Sim
-accelwattch_hybrid_perfsim_L2_WM                    0 # Get L2 Write Misses for Accelwattch-Hybrid from Accel-Sim
-accelwattch_hybrid_perfsim_CC_ACC                    0 # Get Constant Cache Acesses for Accelwattch-Hybrid from Accel-Sim
-accelwattch_hybrid_perfsim_SHARED_ACC                    0 # Get Shared Memory Acesses for Accelwattch-Hybrid from Accel-Sim
-accelwattch_hybrid_perfsim_DRAM_RD                    0 # Get DRAM Reads for Accelwattch-Hybrid from Accel-Sim
-accelwattch_hybrid_perfsim_DRAM_WR                    0 # Get DRAM Writes for Accelwattch-Hybrid from Accel-Sim
-accelwattch_hybrid_perfsim_NOC                    0 # Get Interconnect Acesses for Accelwattch-Hybrid from Accel-Sim
-accelwattch_hybrid_perfsim_PIPE_DUTY                    0 # Get Pipeline Duty Cycle Acesses for Accelwattch-Hybrid from Accel-Sim
-accelwattch_hybrid_perfsim_NUM_SM_IDLE                    0 # Get Number of Idle SMs for Accelwattch-Hybrid from Accel-Sim
-accelwattch_hybrid_perfsim_CYCLES                    0 # Get Executed Cycles for Accelwattch-Hybrid from Accel-Sim
-accelwattch_hybrid_perfsim_VOLTAGE                    0 # Get Chip Voltage for Accelwattch-Hybrid from Accel-Sim
-power_trace_enabled                    0 # produce a file for the power trace (1=On, 0=Off)
-power_trace_zlevel                     6 # Compression level of the power trace output log (0=no comp, 9=highest)
-steady_power_levels_enabled                    0 # produce a file for the steady power levels (1=On, 0=Off)
-steady_state_definition                  8:4 # allowed deviation:number of samples
-gpgpu_max_cycle                        0 # terminates gpu simulation early (0 = no limit)
-gpgpu_max_insn                         0 # terminates gpu simulation early (0 = no limit)
-gpgpu_max_cta                          0 # terminates gpu simulation early (0 = no limit)
-gpgpu_max_completed_cta                    0 # terminates gpu simulation early (0 = no limit)
-gpgpu_runtime_stat                   500 # display runtime statistics such as dram utilization {<freq>:<flag>}
-liveness_message_freq                    1 # Minimum number of seconds between simulation liveness messages (0 = always print)
-gpgpu_compute_capability_major                    6 # Major compute capability version number
-gpgpu_compute_capability_minor                    1 # Minor compute capability version number
-gpgpu_flush_l1_cache                    1 # Flush L1 cache at the end of each kernel call
-gpgpu_flush_l2_cache                    0 # Flush L2 cache at the end of each kernel call
-gpgpu_deadlock_detect                    1 # Stop the simulation at deadlock (1=on (default), 0=off)
-gpgpu_ptx_instruction_classification                    0 # if enabled will classify ptx instruction types per kernel (Max 255 kernels now)
-gpgpu_ptx_sim_mode                     0 # Select between Performance (default) or Functional simulation (1)
-gpgpu_clock_domains 1417.0:1417.0:1417.0:2500.0 # Clock Domain Frequencies in MhZ {<Core Clock>:<ICNT Clock>:<L2 Clock>:<DRAM Clock>}
-gpgpu_max_concurrent_kernel                    8 # maximum kernels that can run concurrently on GPU
-gpgpu_cflog_interval                    0 # Interval between each snapshot in control flow logger
-visualizer_enabled                     0 # Turn on visualizer output (1=On, 0=Off)
-visualizer_outputfile                 NULL # Specifies the output log file for visualizer
-visualizer_zlevel                      6 # Compression level of the visualizer output log (0=no comp, 9=highest)
-gpgpu_stack_size_limit                 1024 # GPU thread stack size
-gpgpu_heap_size_limit              8388608 # GPU malloc heap size 
-gpgpu_runtime_sync_depth_limit                    2 # GPU device runtime synchronize depth
-gpgpu_runtime_pending_launch_count_limit                 2048 # GPU device runtime pending launch count
-trace_enabled                          0 # Turn on traces
-trace_components                    none # comma seperated list of traces to enable. Complete list found in trace_streams.tup. Default none
-trace_sampling_core                    0 # The core which is printed using CORE_DPRINTF. Default 0
-trace_sampling_memory_partition                   -1 # The memory partition which is printed using MEMPART_DPRINTF. Default -1 (i.e. all)
-enable_ptx_file_line_stats                    1 # Turn on PTX source line statistic profiling. (1 = On)
-ptx_line_stats_filename gpgpu_inst_stats.txt # Output file for PTX source line statistics.
-gpgpu_kernel_launch_latency                 5000 # Kernel launch latency in cycles. Default: 0
-gpgpu_cdp_enabled                      0 # Turn on CDP
-gpgpu_TB_launch_latency                    0 # thread block launch latency in cycles. Default: 0
-trace               ./traces/kernelslist.g # traces kernel filetraces kernel file directory
-trace_opcode_latency_initiation_int                  4,1 # Opcode latencies and initiation for integers in trace driven mode <latency,initiation>
-trace_opcode_latency_initiation_sp                  4,1 # Opcode latencies and initiation for sp in trace driven mode <latency,initiation>
-trace_opcode_latency_initiation_dp                 20,8 # Opcode latencies and initiation for dp in trace driven mode <latency,initiation>
-trace_opcode_latency_initiation_sfu                 20,4 # Opcode latencies and initiation for sfu in trace driven mode <latency,initiation>
-trace_opcode_latency_initiation_tensor                  4,1 # Opcode latencies and initiation for tensor in trace driven mode <latency,initiation>
-trace_opcode_latency_initiation_spec_op_1                  4,4 # specialized unit config <latency,initiation>
-trace_opcode_latency_initiation_spec_op_2                  4,4 # specialized unit config <latency,initiation>
-trace_opcode_latency_initiation_spec_op_3                  4,4 # specialized unit config <latency,initiation>
-trace_opcode_latency_initiation_spec_op_4                  4,4 # specialized unit config <latency,initiation>
-trace_opcode_latency_initiation_spec_op_5                  4,4 # specialized unit config <latency,initiation>
-trace_opcode_latency_initiation_spec_op_6                  4,4 # specialized unit config <latency,initiation>
-trace_opcode_latency_initiation_spec_op_7                  4,4 # specialized unit config <latency,initiation>
-trace_opcode_latency_initiation_spec_op_8                  4,4 # specialized unit config <latency,initiation>
DRAM Timing Options:
nbk                                    16 # number of banks
CCD                                     2 # column to column delay
RRD                                     8 # minimal delay between activation of rows in different banks
RCD                                    16 # row to column delay
RAS                                    37 # time needed to activate row
RP                                     16 # time needed to precharge (deactivate) row
RC                                     52 # row cycle time
CDLR                                    7 # switching from write to read (changes tWTR)
WR                                     16 # last data-in to row precharge
CL                                     16 # CAS latency
WL                                      6 # Write latency
nbkgrp                                  4 # number of bank groups
CCDL                                    4 # column to column delay between accesses to different bank groups
RTPL                                    3 # read to precharge delay between accesses to different bank groups
Total number of memory sub partition = 24
addr_dec_mask[CHIP]  = 0000000000000000 	high:64 low:0
addr_dec_mask[BK]    = 0000000000007080 	high:15 low:7
addr_dec_mask[ROW]   = 000000000fff8000 	high:28 low:15
addr_dec_mask[COL]   = 0000000000000f7f 	high:12 low:0
addr_dec_mask[BURST] = 000000000000001f 	high:5 low:0
sub_partition_id_mask = 0000000000000080
GPGPU-Sim uArch: clock freqs: 1417000000.000000:1417000000.000000:1417000000.000000:2500000000.000000
GPGPU-Sim uArch: clock periods: 0.00000000070571630205:0.00000000070571630205:0.00000000070571630205:0.00000000040000000000
*** Initializing Memory Statistics ***
GPGPU-Sim uArch: interconnect node map (shaderID+MemID to icntID)
GPGPU-Sim uArch: Memory nodes ID start from index: 6
GPGPU-Sim uArch:    0   1   2   3   4   5   6
GPGPU-Sim uArch:    7   8   9  10  11  12  13
GPGPU-Sim uArch:   14  15  16  17  18  19  20
GPGPU-Sim uArch:   21  22  23  24  25  26  27
GPGPU-Sim uArch:   28  29  30  31  32  33  34
GPGPU-Sim uArch:   35  36  37  38  39  40  41
GPGPU-Sim uArch:   42  43  44  45  46  47  48
GPGPU-Sim uArch:   49  50  51
GPGPU-Sim uArch: interconnect node reverse map (icntID to shaderID+MemID)
GPGPU-Sim uArch: Memory nodes start from ID: 6
GPGPU-Sim uArch:    0   1   2   3   4   5   6
GPGPU-Sim uArch:    7   8   9  10  11  12  13
GPGPU-Sim uArch:   14  15  16  17  18  19  20
GPGPU-Sim uArch:   21  22  23  24  25  26  27
GPGPU-Sim uArch:   28  29  30  31  32  33  34
GPGPU-Sim uArch:   35  36  37  38  39  40  41
GPGPU-Sim uArch:   42  43  44  45  46  47  48
GPGPU-Sim uArch:   49  50  51
GPGPU-Sim uArch: performance model initialization complete.
launching memcpy command : MemcpyHtoD,0x00007f3e3f800000,4194304
launching memcpy command : MemcpyHtoD,0x00007f3e3e000000,4194304
Processing kernel ./traces/kernel-1.traceg
-kernel name = _Z14calculate_tempiPfS_S_iiiiffffff
-kernel id = 1
-grid dim = (86,86,1)
-block dim = (16,16,1)
-shmem = 3072
-nregs = 30
-binary version = 61
-cuda stream id = 0
-shmem base_addr = 0x00007f3e64000000
-local mem base_addr = 0x00007f3e62000000
-nvbit version = 1.5
-accelsim tracer version = 3
launching kernel command : ./traces/kernel-1.traceg
GPGPU-Sim uArch: Shader 0 bind to kernel 1 '_Z14calculate_tempiPfS_S_iiiiffffff'
GPGPU-Sim uArch: CTA/core = 8, limited by: threads regs
thread block = 0,0,0
GPGPU-Sim uArch: Shader 1 bind to kernel 1 '_Z14calculate_tempiPfS_S_iiiiffffff'
thread block = 1,0,0
GPGPU-Sim uArch: Shader 2 bind to kernel 1 '_Z14calculate_tempiPfS_S_iiiiffffff'
thread block = 2,0,0
GPGPU-Sim uArch: Shader 3 bind to kernel 1 '_Z14calculate_tempiPfS_S_iiiiffffff'
thread block = 3,0,0
GPGPU-Sim uArch: Shader 4 bind to kernel 1 '_Z14calculate_tempiPfS_S_iiiiffffff'
thread block = 4,0,0
GPGPU-Sim uArch: Shader 5 bind to kernel 1 '_Z14calculate_tempiPfS_S_iiiiffffff'
thread block = 5,0,0
thread block = 6,0,0
thread block = 7,0,0
thread block = 8,0,0
thread block = 9,0,0
thread block = 10,0,0
thread block = 11,0,0
thread block = 12,0,0
thread block = 13,0,0
thread block = 14,0,0
thread block = 15,0,0
thread block = 16,0,0
thread block = 17,0,0
thread block = 18,0,0
thread block = 19,0,0
thread block = 20,0,0
thread block = 21,0,0
thread block = 22,0,0
thread block = 23,0,0
thread block = 24,0,0
thread block = 25,0,0
thread block = 26,0,0
thread block = 27,0,0
thread block = 28,0,0
thread block = 29,0,0
thread block = 30,0,0
thread block = 31,0,0
thread block = 32,0,0
thread block = 33,0,0
thread block = 34,0,0
thread block = 35,0,0
thread block = 36,0,0
thread block = 37,0,0
thread block = 38,0,0
thread block = 39,0,0
thread block = 40,0,0
thread block = 41,0,0
thread block = 42,0,0
thread block = 43,0,0
thread block = 44,0,0
thread block = 45,0,0
thread block = 46,0,0
thread block = 47,0,0
thread block = 48,0,0
thread block = 49,0,0
thread block = 50,0,0
thread block = 51,0,0
thread block = 52,0,0
thread block = 53,0,0
thread block = 54,0,0
thread block = 55,0,0
thread block = 56,0,0
thread block = 57,0,0
thread block = 58,0,0
thread block = 59,0,0
thread block = 60,0,0
thread block = 61,0,0
thread block = 62,0,0
thread block = 63,0,0
thread block = 64,0,0
thread block = 65,0,0
thread block = 66,0,0
thread block = 67,0,0
thread block = 68,0,0
thread block = 69,0,0
thread block = 70,0,0
thread block = 71,0,0
thread block = 72,0,0
thread block = 73,0,0
thread block = 74,0,0
thread block = 75,0,0
thread block = 76,0,0
thread block = 77,0,0
thread block = 78,0,0
thread block = 79,0,0
thread block = 80,0,0
thread block = 81,0,0
thread block = 82,0,0
thread block = 83,0,0
thread block = 84,0,0
thread block = 85,0,0
thread block = 0,1,0
thread block = 1,1,0
thread block = 2,1,0
thread block = 3,1,0
thread block = 4,1,0
thread block = 5,1,0
thread block = 6,1,0
thread block = 7,1,0
thread block = 8,1,0
thread block = 9,1,0
thread block = 10,1,0
thread block = 11,1,0
thread block = 12,1,0
thread block = 13,1,0
thread block = 14,1,0
thread block = 15,1,0
thread block = 16,1,0
thread block = 17,1,0
thread block = 18,1,0
thread block = 19,1,0
thread block = 20,1,0
thread block = 21,1,0
thread block = 22,1,0
thread block = 23,1,0
thread block = 24,1,0
thread block = 25,1,0
thread block = 26,1,0
thread block = 27,1,0
thread block = 28,1,0
thread block = 29,1,0
thread block = 30,1,0
thread block = 31,1,0
thread block = 32,1,0
thread block = 33,1,0
thread block = 34,1,0
thread block = 35,1,0
thread block = 36,1,0
thread block = 37,1,0
thread block = 38,1,0
thread block = 39,1,0
thread block = 40,1,0
thread block = 41,1,0
thread block = 42,1,0
thread block = 43,1,0
thread block = 44,1,0
thread block = 45,1,0
thread block = 46,1,0
thread block = 47,1,0
thread block = 48,1,0
thread block = 49,1,0
thread block = 50,1,0
thread block = 51,1,0
thread block = 52,1,0
thread block = 53,1,0
thread block = 54,1,0
thread block = 55,1,0
thread block = 56,1,0
thread block = 57,1,0
thread block = 58,1,0
thread block = 59,1,0
thread block = 60,1,0
thread block = 61,1,0
thread block = 62,1,0
thread block = 63,1,0
thread block = 64,1,0
thread block = 65,1,0
thread block = 66,1,0
thread block = 67,1,0
thread block = 68,1,0
thread block = 69,1,0
thread block = 70,1,0
thread block = 71,1,0
thread block = 72,1,0
thread block = 73,1,0
thread block = 74,1,0
thread block = 75,1,0
thread block = 76,1,0
thread block = 77,1,0
thread block = 78,1,0
thread block = 79,1,0
thread block = 80,1,0
thread block = 81,1,0
thread block = 82,1,0
thread block = 83,1,0
thread block = 84,1,0
thread block = 85,1,0
thread block = 0,2,0
thread block = 1,2,0
thread block = 2,2,0
thread block = 3,2,0
thread block = 4,2,0
thread block = 5,2,0
thread block = 6,2,0
thread block = 7,2,0
thread block = 8,2,0
thread block = 9,2,0
thread block = 10,2,0
thread block = 11,2,0
thread block = 12,2,0
thread block = 13,2,0
thread block = 14,2,0
thread block = 15,2,0
thread block = 16,2,0
thread block = 17,2,0
thread block = 18,2,0
thread block = 19,2,0
thread block = 20,2,0
thread block = 21,2,0
thread block = 22,2,0
thread block = 23,2,0
thread block = 24,2,0
thread block = 25,2,0
thread block = 26,2,0
thread block = 27,2,0
thread block = 28,2,0
thread block = 29,2,0
thread block = 30,2,0
thread block = 31,2,0
thread block = 32,2,0
thread block = 33,2,0
thread block = 34,2,0
thread block = 35,2,0
thread block = 36,2,0
thread block = 37,2,0
thread block = 38,2,0
thread block = 39,2,0
thread block = 40,2,0
thread block = 41,2,0
thread block = 42,2,0
thread block = 43,2,0
thread block = 44,2,0
thread block = 45,2,0
thread block = 46,2,0
thread block = 47,2,0
thread block = 48,2,0
thread block = 49,2,0
thread block = 50,2,0
thread block = 51,2,0
thread block = 52,2,0
thread block = 53,2,0
thread block = 54,2,0
thread block = 55,2,0
thread block = 56,2,0
thread block = 57,2,0
thread block = 58,2,0
thread block = 59,2,0
thread block = 60,2,0
thread block = 61,2,0
thread block = 62,2,0
thread block = 63,2,0
thread block = 64,2,0
thread block = 65,2,0
thread block = 66,2,0
thread block = 67,2,0
thread block = 68,2,0
thread block = 69,2,0
thread block = 70,2,0
thread block = 71,2,0
thread block = 72,2,0
thread block = 73,2,0
thread block = 74,2,0
thread block = 75,2,0
thread block = 76,2,0
thread block = 77,2,0
thread block = 78,2,0
thread block = 79,2,0
thread block = 80,2,0
thread block = 81,2,0
thread block = 82,2,0
thread block = 83,2,0
thread block = 84,2,0
thread block = 85,2,0
thread block = 0,3,0
thread block = 1,3,0
thread block = 2,3,0
thread block = 3,3,0
thread block = 4,3,0
thread block = 5,3,0
thread block = 6,3,0
thread block = 7,3,0
thread block = 8,3,0
thread block = 9,3,0
thread block = 10,3,0
thread block = 11,3,0
thread block = 12,3,0
thread block = 13,3,0
thread block = 14,3,0
thread block = 15,3,0
thread block = 16,3,0
thread block = 17,3,0
thread block = 18,3,0
thread block = 19,3,0
thread block = 20,3,0
thread block = 21,3,0
thread block = 22,3,0
thread block = 23,3,0
thread block = 24,3,0
thread block = 25,3,0
thread block = 26,3,0
thread block = 27,3,0
thread block = 28,3,0
thread block = 29,3,0
thread block = 30,3,0
thread block = 31,3,0
thread block = 32,3,0
thread block = 33,3,0
thread block = 34,3,0
thread block = 35,3,0
thread block = 36,3,0
thread block = 37,3,0
thread block = 38,3,0
thread block = 39,3,0
thread block = 40,3,0
thread block = 41,3,0
thread block = 42,3,0
thread block = 43,3,0
thread block = 44,3,0
thread block = 45,3,0
thread block = 46,3,0
thread block = 47,3,0
thread block = 48,3,0
thread block = 49,3,0
thread block = 50,3,0
thread block = 51,3,0
thread block = 52,3,0
thread block = 53,3,0
thread block = 54,3,0
thread block = 55,3,0
thread block = 56,3,0
thread block = 57,3,0
thread block = 58,3,0
thread block = 59,3,0
thread block = 60,3,0
thread block = 61,3,0
thread block = 62,3,0
thread block = 63,3,0
thread block = 64,3,0
thread block = 65,3,0
thread block = 66,3,0
thread block = 67,3,0
thread block = 68,3,0
thread block = 69,3,0
thread block = 70,3,0
thread block = 71,3,0
thread block = 72,3,0
thread block = 73,3,0
thread block = 74,3,0
thread block = 75,3,0
thread block = 76,3,0
thread block = 77,3,0
thread block = 78,3,0
thread block = 79,3,0
thread block = 80,3,0
thread block = 81,3,0
thread block = 82,3,0
thread block = 83,3,0
thread block = 84,3,0
thread block = 85,3,0
thread block = 0,4,0
thread block = 1,4,0
thread block = 2,4,0
thread block = 3,4,0
thread block = 4,4,0
thread block = 5,4,0
thread block = 6,4,0
thread block = 7,4,0
thread block = 8,4,0
thread block = 9,4,0
thread block = 10,4,0
thread block = 11,4,0
thread block = 12,4,0
thread block = 13,4,0
thread block = 14,4,0
thread block = 15,4,0
thread block = 16,4,0
thread block = 17,4,0
thread block = 18,4,0
thread block = 19,4,0
thread block = 20,4,0
thread block = 21,4,0
thread block = 22,4,0
thread block = 23,4,0
thread block = 24,4,0
thread block = 25,4,0
thread block = 26,4,0
thread block = 27,4,0
thread block = 28,4,0
thread block = 29,4,0
thread block = 30,4,0
thread block = 31,4,0
thread block = 32,4,0
thread block = 33,4,0
thread block = 34,4,0
thread block = 35,4,0
thread block = 36,4,0
thread block = 37,4,0
thread block = 38,4,0
thread block = 39,4,0
thread block = 40,4,0
thread block = 41,4,0
thread block = 42,4,0
thread block = 43,4,0
thread block = 44,4,0
thread block = 45,4,0
thread block = 46,4,0
thread block = 47,4,0
thread block = 48,4,0
thread block = 49,4,0
thread block = 50,4,0
thread block = 51,4,0
thread block = 52,4,0
thread block = 53,4,0
thread block = 54,4,0
thread block = 55,4,0
thread block = 56,4,0
thread block = 57,4,0
thread block = 58,4,0
thread block = 59,4,0
thread block = 60,4,0
thread block = 61,4,0
thread block = 62,4,0
thread block = 63,4,0
thread block = 64,4,0
thread block = 65,4,0
thread block = 66,4,0
thread block = 67,4,0
thread block = 68,4,0
thread block = 69,4,0
thread block = 70,4,0
thread block = 71,4,0
thread block = 72,4,0
thread block = 73,4,0
thread block = 74,4,0
thread block = 75,4,0
thread block = 76,4,0
thread block = 77,4,0
thread block = 78,4,0
thread block = 79,4,0
thread block = 80,4,0
thread block = 81,4,0
thread block = 82,4,0
thread block = 83,4,0
thread block = 84,4,0
thread block = 85,4,0
thread block = 0,5,0
thread block = 1,5,0
thread block = 2,5,0
thread block = 3,5,0
thread block = 4,5,0
thread block = 5,5,0
thread block = 6,5,0
thread block = 7,5,0
thread block = 8,5,0
thread block = 9,5,0
thread block = 10,5,0
thread block = 11,5,0
thread block = 12,5,0
thread block = 13,5,0
thread block = 14,5,0
thread block = 15,5,0
thread block = 16,5,0
thread block = 17,5,0
thread block = 18,5,0
thread block = 19,5,0
thread block = 20,5,0
thread block = 21,5,0
thread block = 22,5,0
thread block = 23,5,0
thread block = 24,5,0
thread block = 25,5,0
thread block = 26,5,0
thread block = 27,5,0
thread block = 28,5,0
thread block = 29,5,0
thread block = 30,5,0
thread block = 31,5,0
thread block = 32,5,0
thread block = 33,5,0
thread block = 34,5,0
thread block = 35,5,0
thread block = 36,5,0
thread block = 37,5,0
thread block = 38,5,0
thread block = 39,5,0
thread block = 40,5,0
thread block = 41,5,0
thread block = 42,5,0
thread block = 43,5,0
thread block = 44,5,0
thread block = 45,5,0
thread block = 46,5,0
thread block = 47,5,0
thread block = 48,5,0
thread block = 49,5,0
thread block = 50,5,0
thread block = 51,5,0
thread block = 52,5,0
thread block = 53,5,0
thread block = 54,5,0
thread block = 55,5,0
thread block = 56,5,0
thread block = 57,5,0
thread block = 58,5,0
thread block = 59,5,0
thread block = 60,5,0
thread block = 61,5,0
thread block = 62,5,0
thread block = 63,5,0
thread block = 64,5,0
thread block = 65,5,0
thread block = 66,5,0
thread block = 67,5,0
thread block = 68,5,0
thread block = 69,5,0
thread block = 70,5,0
thread block = 71,5,0
thread block = 72,5,0
thread block = 73,5,0
thread block = 74,5,0
thread block = 75,5,0
thread block = 76,5,0
thread block = 77,5,0
thread block = 78,5,0
thread block = 79,5,0
thread block = 80,5,0
thread block = 81,5,0
thread block = 82,5,0
thread block = 83,5,0
thread block = 84,5,0
thread block = 85,5,0
thread block = 0,6,0
thread block = 1,6,0
thread block = 2,6,0
thread block = 3,6,0
thread block = 4,6,0
thread block = 5,6,0
thread block = 6,6,0
thread block = 7,6,0
thread block = 8,6,0
thread block = 9,6,0
thread block = 10,6,0
thread block = 11,6,0
thread block = 12,6,0
thread block = 13,6,0
thread block = 14,6,0
thread block = 15,6,0
thread block = 16,6,0
thread block = 17,6,0
thread block = 18,6,0
thread block = 19,6,0
thread block = 20,6,0
thread block = 21,6,0
thread block = 22,6,0
thread block = 23,6,0
thread block = 24,6,0
thread block = 25,6,0
thread block = 26,6,0
thread block = 27,6,0
thread block = 28,6,0
thread block = 29,6,0
thread block = 30,6,0
thread block = 31,6,0
thread block = 32,6,0
thread block = 33,6,0
thread block = 34,6,0
thread block = 35,6,0
thread block = 36,6,0
thread block = 37,6,0
thread block = 38,6,0
thread block = 39,6,0
thread block = 40,6,0
thread block = 41,6,0
thread block = 42,6,0
thread block = 43,6,0
thread block = 44,6,0
thread block = 45,6,0
thread block = 46,6,0
thread block = 47,6,0
thread block = 48,6,0
thread block = 49,6,0
thread block = 50,6,0
thread block = 51,6,0
thread block = 52,6,0
thread block = 53,6,0
thread block = 54,6,0
thread block = 55,6,0
thread block = 56,6,0
thread block = 57,6,0
thread block = 58,6,0
thread block = 59,6,0
thread block = 60,6,0
thread block = 61,6,0
thread block = 62,6,0
thread block = 63,6,0
thread block = 64,6,0
thread block = 65,6,0
thread block = 66,6,0
thread block = 67,6,0
thread block = 68,6,0
thread block = 69,6,0
thread block = 70,6,0
thread block = 71,6,0
thread block = 72,6,0
thread block = 73,6,0
thread block = 74,6,0
thread block = 75,6,0
thread block = 76,6,0
thread block = 77,6,0
thread block = 78,6,0
thread block = 79,6,0
thread block = 80,6,0
thread block = 81,6,0
thread block = 82,6,0
thread block = 83,6,0
thread block = 84,6,0
thread block = 85,6,0
thread block = 0,7,0
thread block = 1,7,0
thread block = 2,7,0
thread block = 3,7,0
thread block = 4,7,0
thread block = 5,7,0
thread block = 6,7,0
thread block = 7,7,0
thread block = 8,7,0
thread block = 9,7,0
thread block = 10,7,0
thread block = 11,7,0
thread block = 12,7,0
thread block = 13,7,0
thread block = 14,7,0
thread block = 15,7,0
thread block = 16,7,0
thread block = 17,7,0
thread block = 18,7,0
thread block = 19,7,0
thread block = 20,7,0
thread block = 21,7,0
thread block = 22,7,0
thread block = 23,7,0
thread block = 24,7,0
thread block = 25,7,0
thread block = 26,7,0
thread block = 27,7,0
thread block = 28,7,0
thread block = 29,7,0
thread block = 30,7,0
thread block = 31,7,0
thread block = 32,7,0
thread block = 33,7,0
thread block = 34,7,0
thread block = 35,7,0
thread block = 36,7,0
thread block = 37,7,0
thread block = 38,7,0
thread block = 39,7,0
thread block = 40,7,0
thread block = 41,7,0
thread block = 42,7,0
thread block = 43,7,0
thread block = 44,7,0
thread block = 45,7,0
thread block = 46,7,0
thread block = 47,7,0
thread block = 48,7,0
thread block = 49,7,0
thread block = 50,7,0
thread block = 51,7,0
thread block = 52,7,0
thread block = 53,7,0
thread block = 54,7,0
thread block = 55,7,0
thread block = 56,7,0
thread block = 57,7,0
thread block = 58,7,0
thread block = 59,7,0
thread block = 60,7,0
thread block = 61,7,0
thread block = 62,7,0
thread block = 63,7,0
thread block = 64,7,0
thread block = 65,7,0
thread block = 66,7,0
thread block = 67,7,0
thread block = 68,7,0
thread block = 69,7,0
thread block = 70,7,0
thread block = 71,7,0
thread block = 72,7,0
thread block = 73,7,0
thread block = 74,7,0
thread block = 75,7,0
thread block = 76,7,0
thread block = 77,7,0
thread block = 78,7,0
thread block = 79,7,0
thread block = 80,7,0
thread block = 81,7,0
thread block = 82,7,0
thread block = 83,7,0
thread block = 84,7,0
thread block = 85,7,0
thread block = 0,8,0
thread block = 1,8,0
thread block = 2,8,0
thread block = 3,8,0
thread block = 4,8,0
thread block = 5,8,0
thread block = 6,8,0
thread block = 7,8,0
thread block = 8,8,0
thread block = 9,8,0
thread block = 10,8,0
thread block = 11,8,0
thread block = 12,8,0
thread block = 13,8,0
thread block = 14,8,0
thread block = 15,8,0
thread block = 16,8,0
thread block = 17,8,0
thread block = 18,8,0
thread block = 19,8,0
thread block = 20,8,0
thread block = 21,8,0
thread block = 22,8,0
thread block = 23,8,0
thread block = 24,8,0
thread block = 25,8,0
thread block = 26,8,0
thread block = 27,8,0
thread block = 28,8,0
thread block = 29,8,0
thread block = 30,8,0
thread block = 31,8,0
thread block = 32,8,0
thread block = 33,8,0
thread block = 34,8,0
thread block = 35,8,0
thread block = 36,8,0
thread block = 37,8,0
thread block = 38,8,0
thread block = 39,8,0
thread block = 40,8,0
thread block = 41,8,0
thread block = 42,8,0
thread block = 43,8,0
thread block = 44,8,0
thread block = 45,8,0
thread block = 46,8,0
thread block = 47,8,0
thread block = 48,8,0
thread block = 49,8,0
thread block = 50,8,0
thread block = 51,8,0
thread block = 52,8,0
thread block = 53,8,0
thread block = 54,8,0
thread block = 55,8,0
thread block = 56,8,0
thread block = 57,8,0
thread block = 58,8,0
thread block = 59,8,0
thread block = 60,8,0
thread block = 61,8,0
thread block = 62,8,0
thread block = 63,8,0
thread block = 64,8,0
thread block = 65,8,0
thread block = 66,8,0
thread block = 67,8,0
thread block = 68,8,0
thread block = 69,8,0
thread block = 70,8,0
thread block = 71,8,0
thread block = 72,8,0
thread block = 73,8,0
thread block = 74,8,0
thread block = 75,8,0
thread block = 76,8,0
thread block = 77,8,0
thread block = 78,8,0
thread block = 79,8,0
thread block = 80,8,0
thread block = 81,8,0
thread block = 82,8,0
thread block = 83,8,0
thread block = 84,8,0
thread block = 85,8,0
thread block = 0,9,0
thread block = 1,9,0
thread block = 2,9,0
thread block = 3,9,0
thread block = 4,9,0
thread block = 5,9,0
thread block = 6,9,0
thread block = 7,9,0
thread block = 8,9,0
thread block = 9,9,0
thread block = 10,9,0
thread block = 11,9,0
thread block = 12,9,0
thread block = 13,9,0
thread block = 14,9,0
thread block = 15,9,0
thread block = 16,9,0
thread block = 17,9,0
thread block = 18,9,0
thread block = 19,9,0
thread block = 20,9,0
thread block = 21,9,0
thread block = 22,9,0
thread block = 23,9,0
thread block = 24,9,0
thread block = 25,9,0
thread block = 26,9,0
thread block = 27,9,0
thread block = 28,9,0
thread block = 29,9,0
thread block = 30,9,0
thread block = 31,9,0
thread block = 32,9,0
thread block = 33,9,0
thread block = 34,9,0
thread block = 35,9,0
thread block = 36,9,0
thread block = 37,9,0
thread block = 38,9,0
thread block = 39,9,0
thread block = 40,9,0
thread block = 41,9,0
thread block = 42,9,0
thread block = 43,9,0
thread block = 44,9,0
thread block = 45,9,0
thread block = 46,9,0
thread block = 47,9,0
thread block = 48,9,0
thread block = 49,9,0
thread block = 50,9,0
thread block = 51,9,0
thread block = 52,9,0
thread block = 53,9,0
thread block = 54,9,0
thread block = 55,9,0
thread block = 56,9,0
thread block = 57,9,0
thread block = 58,9,0
thread block = 59,9,0
thread block = 60,9,0
thread block = 61,9,0
thread block = 62,9,0
thread block = 63,9,0
thread block = 64,9,0
thread block = 65,9,0
thread block = 66,9,0
thread block = 67,9,0
thread block = 68,9,0
thread block = 69,9,0
thread block = 70,9,0
thread block = 71,9,0
thread block = 72,9,0
thread block = 73,9,0
thread block = 74,9,0
thread block = 75,9,0
thread block = 76,9,0
thread block = 77,9,0
thread block = 78,9,0
thread block = 79,9,0
thread block = 80,9,0
thread block = 81,9,0
thread block = 82,9,0
thread block = 83,9,0
thread block = 84,9,0
thread block = 85,9,0
thread block = 0,10,0
thread block = 1,10,0
thread block = 2,10,0
thread block = 3,10,0
thread block = 4,10,0
thread block = 5,10,0
thread block = 6,10,0
thread block = 7,10,0
thread block = 8,10,0
thread block = 9,10,0
thread block = 10,10,0
thread block = 11,10,0
thread block = 12,10,0
thread block = 13,10,0
thread block = 14,10,0
thread block = 15,10,0
thread block = 16,10,0
thread block = 17,10,0
thread block = 18,10,0
thread block = 19,10,0
thread block = 20,10,0
thread block = 21,10,0
thread block = 22,10,0
thread block = 23,10,0
thread block = 24,10,0
thread block = 25,10,0
thread block = 26,10,0
thread block = 27,10,0
thread block = 28,10,0
thread block = 29,10,0
thread block = 30,10,0
thread block = 31,10,0
thread block = 32,10,0
thread block = 33,10,0
thread block = 34,10,0
thread block = 35,10,0
thread block = 36,10,0
thread block = 37,10,0
thread block = 38,10,0
thread block = 39,10,0
thread block = 40,10,0
thread block = 41,10,0
thread block = 42,10,0
thread block = 43,10,0
thread block = 44,10,0
thread block = 45,10,0
thread block = 46,10,0
thread block = 47,10,0
thread block = 48,10,0
thread block = 49,10,0
thread block = 50,10,0
thread block = 51,10,0
thread block = 52,10,0
thread block = 53,10,0
thread block = 54,10,0
thread block = 55,10,0
thread block = 56,10,0
thread block = 57,10,0
thread block = 58,10,0
thread block = 59,10,0
thread block = 60,10,0
thread block = 61,10,0
thread block = 62,10,0
thread block = 63,10,0
thread block = 64,10,0
thread block = 65,10,0
thread block = 66,10,0
thread block = 67,10,0
thread block = 68,10,0
thread block = 69,10,0
thread block = 70,10,0
thread block = 71,10,0
thread block = 72,10,0
thread block = 73,10,0
thread block = 74,10,0
thread block = 75,10,0
thread block = 76,10,0
thread block = 77,10,0
thread block = 78,10,0
thread block = 79,10,0
thread block = 80,10,0
thread block = 81,10,0
thread block = 82,10,0
thread block = 83,10,0
thread block = 84,10,0
thread block = 85,10,0
thread block = 0,11,0
thread block = 1,11,0
thread block = 2,11,0
thread block = 3,11,0
thread block = 4,11,0
thread block = 5,11,0
thread block = 6,11,0
thread block = 7,11,0
thread block = 8,11,0
thread block = 9,11,0
thread block = 10,11,0
thread block = 11,11,0
thread block = 12,11,0
thread block = 13,11,0
thread block = 14,11,0
thread block = 15,11,0
thread block = 16,11,0
thread block = 17,11,0
thread block = 18,11,0
thread block = 19,11,0
thread block = 20,11,0
thread block = 21,11,0
thread block = 22,11,0
thread block = 23,11,0
thread block = 24,11,0
thread block = 25,11,0
thread block = 26,11,0
thread block = 27,11,0
thread block = 28,11,0
thread block = 29,11,0
thread block = 30,11,0
thread block = 31,11,0
thread block = 32,11,0
thread block = 33,11,0
thread block = 34,11,0
thread block = 35,11,0
thread block = 36,11,0
thread block = 37,11,0
thread block = 38,11,0
thread block = 39,11,0
thread block = 40,11,0
thread block = 41,11,0
thread block = 42,11,0
thread block = 43,11,0
thread block = 44,11,0
thread block = 45,11,0
thread block = 46,11,0
thread block = 47,11,0
thread block = 48,11,0
thread block = 49,11,0
thread block = 50,11,0
thread block = 51,11,0
thread block = 52,11,0
thread block = 53,11,0
thread block = 54,11,0
thread block = 55,11,0
thread block = 56,11,0
thread block = 57,11,0
thread block = 58,11,0
thread block = 59,11,0
thread block = 60,11,0
thread block = 61,11,0
thread block = 62,11,0
thread block = 63,11,0
thread block = 64,11,0
thread block = 65,11,0
thread block = 66,11,0
thread block = 67,11,0
thread block = 68,11,0
thread block = 69,11,0
thread block = 70,11,0
thread block = 71,11,0
thread block = 72,11,0
thread block = 73,11,0
thread block = 74,11,0
thread block = 75,11,0
thread block = 76,11,0
thread block = 77,11,0
thread block = 78,11,0
thread block = 79,11,0
thread block = 80,11,0
thread block = 81,11,0
thread block = 82,11,0
thread block = 83,11,0
thread block = 84,11,0
thread block = 85,11,0
thread block = 0,12,0
thread block = 1,12,0
thread block = 2,12,0
thread block = 3,12,0
thread block = 4,12,0
thread block = 5,12,0
thread block = 6,12,0
thread block = 7,12,0
thread block = 8,12,0
thread block = 9,12,0
thread block = 10,12,0
thread block = 11,12,0
thread block = 12,12,0
thread block = 13,12,0
thread block = 14,12,0
thread block = 15,12,0
thread block = 16,12,0
thread block = 17,12,0
thread block = 18,12,0
thread block = 19,12,0
thread block = 20,12,0
thread block = 21,12,0
thread block = 22,12,0
thread block = 23,12,0
thread block = 24,12,0
thread block = 25,12,0
thread block = 26,12,0
thread block = 27,12,0
thread block = 28,12,0
thread block = 29,12,0
thread block = 30,12,0
thread block = 31,12,0
thread block = 32,12,0
thread block = 33,12,0
thread block = 34,12,0
thread block = 35,12,0
thread block = 36,12,0
thread block = 37,12,0
thread block = 38,12,0
thread block = 39,12,0
thread block = 40,12,0
thread block = 41,12,0
thread block = 42,12,0
thread block = 43,12,0
thread block = 44,12,0
thread block = 45,12,0
thread block = 46,12,0
thread block = 47,12,0
thread block = 48,12,0
thread block = 49,12,0
thread block = 50,12,0
thread block = 51,12,0
thread block = 52,12,0
thread block = 53,12,0
thread block = 54,12,0
thread block = 55,12,0
thread block = 56,12,0
thread block = 57,12,0
thread block = 58,12,0
thread block = 59,12,0
thread block = 60,12,0
thread block = 61,12,0
thread block = 62,12,0
thread block = 63,12,0
thread block = 64,12,0
thread block = 65,12,0
thread block = 66,12,0
thread block = 67,12,0
thread block = 68,12,0
thread block = 69,12,0
thread block = 70,12,0
thread block = 71,12,0
thread block = 72,12,0
thread block = 73,12,0
thread block = 74,12,0
thread block = 75,12,0
thread block = 76,12,0
thread block = 77,12,0
thread block = 78,12,0
thread block = 79,12,0
thread block = 80,12,0
thread block = 81,12,0
thread block = 82,12,0
thread block = 83,12,0
thread block = 84,12,0
thread block = 85,12,0
thread block = 0,13,0
thread block = 1,13,0
thread block = 2,13,0
thread block = 3,13,0
thread block = 4,13,0
thread block = 5,13,0
thread block = 6,13,0
thread block = 7,13,0
thread block = 8,13,0
thread block = 9,13,0
thread block = 10,13,0
thread block = 11,13,0
thread block = 12,13,0
thread block = 13,13,0
thread block = 14,13,0
thread block = 15,13,0
thread block = 16,13,0
thread block = 17,13,0
thread block = 18,13,0
thread block = 19,13,0
thread block = 20,13,0
thread block = 21,13,0
thread block = 22,13,0
thread block = 23,13,0
thread block = 24,13,0
thread block = 25,13,0
thread block = 26,13,0
thread block = 27,13,0
thread block = 28,13,0
thread block = 29,13,0
thread block = 30,13,0
thread block = 31,13,0
thread block = 32,13,0
thread block = 33,13,0
thread block = 34,13,0
thread block = 35,13,0
thread block = 36,13,0
thread block = 37,13,0
thread block = 38,13,0
thread block = 39,13,0
thread block = 40,13,0
thread block = 41,13,0
thread block = 42,13,0
thread block = 43,13,0
thread block = 44,13,0
thread block = 45,13,0
thread block = 46,13,0
thread block = 47,13,0
thread block = 48,13,0
thread block = 49,13,0
thread block = 50,13,0
thread block = 51,13,0
thread block = 52,13,0
thread block = 53,13,0
thread block = 54,13,0
thread block = 55,13,0
thread block = 56,13,0
thread block = 57,13,0
thread block = 58,13,0
thread block = 59,13,0
thread block = 60,13,0
thread block = 61,13,0
thread block = 62,13,0
thread block = 63,13,0
thread block = 64,13,0
thread block = 65,13,0
thread block = 66,13,0
thread block = 67,13,0
thread block = 68,13,0
thread block = 69,13,0
thread block = 70,13,0
thread block = 71,13,0
thread block = 72,13,0
thread block = 73,13,0
thread block = 74,13,0
thread block = 75,13,0
thread block = 76,13,0
thread block = 77,13,0
thread block = 78,13,0
thread block = 79,13,0
thread block = 80,13,0
thread block = 81,13,0
thread block = 82,13,0
thread block = 83,13,0
thread block = 84,13,0
thread block = 85,13,0
thread block = 0,14,0
thread block = 1,14,0
thread block = 2,14,0
thread block = 3,14,0
thread block = 4,14,0
thread block = 5,14,0
thread block = 6,14,0
thread block = 7,14,0
thread block = 8,14,0
thread block = 9,14,0
thread block = 10,14,0
thread block = 11,14,0
thread block = 12,14,0
thread block = 13,14,0
thread block = 14,14,0
thread block = 15,14,0
thread block = 16,14,0
thread block = 17,14,0
thread block = 18,14,0
thread block = 19,14,0
thread block = 20,14,0
thread block = 21,14,0
thread block = 22,14,0
thread block = 23,14,0
thread block = 24,14,0
thread block = 25,14,0
thread block = 26,14,0
thread block = 27,14,0
thread block = 28,14,0
thread block = 29,14,0
thread block = 30,14,0
thread block = 31,14,0
thread block = 32,14,0
thread block = 33,14,0
thread block = 34,14,0
thread block = 35,14,0
thread block = 36,14,0
thread block = 37,14,0
thread block = 38,14,0
thread block = 39,14,0
thread block = 40,14,0
thread block = 41,14,0
thread block = 42,14,0
thread block = 43,14,0
thread block = 44,14,0
thread block = 45,14,0
thread block = 46,14,0
thread block = 47,14,0
thread block = 48,14,0
thread block = 49,14,0
thread block = 50,14,0
thread block = 51,14,0
thread block = 52,14,0
thread block = 53,14,0
thread block = 54,14,0
thread block = 55,14,0
thread block = 56,14,0
thread block = 57,14,0
thread block = 58,14,0
thread block = 59,14,0
thread block = 60,14,0
thread block = 61,14,0
thread block = 62,14,0
thread block = 63,14,0
thread block = 64,14,0
thread block = 65,14,0
thread block = 66,14,0
thread block = 67,14,0
thread block = 68,14,0
thread block = 69,14,0
thread block = 70,14,0
thread block = 71,14,0
thread block = 72,14,0
thread block = 73,14,0
thread block = 74,14,0
thread block = 75,14,0
thread block = 76,14,0
thread block = 77,14,0
thread block = 78,14,0
thread block = 79,14,0
thread block = 80,14,0
thread block = 81,14,0
thread block = 82,14,0
thread block = 83,14,0
thread block = 84,14,0
thread block = 85,14,0
thread block = 0,15,0
thread block = 1,15,0
thread block = 2,15,0
thread block = 3,15,0
thread block = 4,15,0
thread block = 5,15,0
thread block = 6,15,0
thread block = 7,15,0
thread block = 8,15,0
thread block = 9,15,0
thread block = 10,15,0
thread block = 11,15,0
thread block = 12,15,0
thread block = 13,15,0
thread block = 14,15,0
thread block = 15,15,0
thread block = 16,15,0
thread block = 17,15,0
thread block = 18,15,0
thread block = 19,15,0
thread block = 20,15,0
thread block = 21,15,0
thread block = 22,15,0
thread block = 23,15,0
thread block = 24,15,0
thread block = 25,15,0
thread block = 26,15,0
thread block = 27,15,0
thread block = 28,15,0
thread block = 29,15,0
thread block = 30,15,0
thread block = 31,15,0
thread block = 32,15,0
thread block = 33,15,0
thread block = 34,15,0
thread block = 35,15,0
thread block = 36,15,0
thread block = 37,15,0
thread block = 38,15,0
thread block = 39,15,0
thread block = 40,15,0
thread block = 41,15,0
thread block = 42,15,0
thread block = 43,15,0
thread block = 44,15,0
thread block = 45,15,0
thread block = 46,15,0
thread block = 47,15,0
thread block = 48,15,0
thread block = 49,15,0
thread block = 50,15,0
thread block = 51,15,0
thread block = 52,15,0
thread block = 53,15,0
thread block = 54,15,0
thread block = 55,15,0
thread block = 56,15,0
thread block = 57,15,0
thread block = 58,15,0
thread block = 59,15,0
thread block = 60,15,0
thread block = 61,15,0
thread block = 62,15,0
thread block = 63,15,0
thread block = 64,15,0
thread block = 65,15,0
thread block = 66,15,0
thread block = 67,15,0
thread block = 68,15,0
thread block = 69,15,0
thread block = 70,15,0
thread block = 71,15,0
thread block = 72,15,0
thread block = 73,15,0
thread block = 74,15,0
thread block = 75,15,0
thread block = 76,15,0
thread block = 77,15,0
thread block = 78,15,0
thread block = 79,15,0
thread block = 80,15,0
thread block = 81,15,0
thread block = 82,15,0
thread block = 83,15,0
thread block = 84,15,0
thread block = 85,15,0
thread block = 0,16,0
thread block = 1,16,0
thread block = 2,16,0
thread block = 3,16,0
thread block = 4,16,0
thread block = 5,16,0
thread block = 6,16,0
thread block = 7,16,0
thread block = 8,16,0
thread block = 9,16,0
thread block = 10,16,0
thread block = 11,16,0
thread block = 12,16,0
thread block = 13,16,0
thread block = 14,16,0
thread block = 15,16,0
thread block = 16,16,0
thread block = 17,16,0
thread block = 18,16,0
thread block = 19,16,0
thread block = 20,16,0
thread block = 21,16,0
thread block = 22,16,0
thread block = 23,16,0
thread block = 24,16,0
thread block = 25,16,0
thread block = 26,16,0
thread block = 27,16,0
thread block = 28,16,0
thread block = 29,16,0
thread block = 30,16,0
thread block = 31,16,0
thread block = 32,16,0
thread block = 33,16,0
thread block = 34,16,0
thread block = 35,16,0
thread block = 36,16,0
thread block = 37,16,0
thread block = 38,16,0
thread block = 39,16,0
thread block = 40,16,0
thread block = 41,16,0
thread block = 42,16,0
thread block = 43,16,0
thread block = 44,16,0
thread block = 45,16,0
thread block = 46,16,0
thread block = 47,16,0
thread block = 48,16,0
thread block = 49,16,0
thread block = 50,16,0
thread block = 51,16,0
thread block = 52,16,0
thread block = 53,16,0
thread block = 54,16,0
thread block = 55,16,0
thread block = 56,16,0
thread block = 57,16,0
thread block = 58,16,0
thread block = 59,16,0
thread block = 60,16,0
thread block = 61,16,0
thread block = 62,16,0
thread block = 63,16,0
thread block = 64,16,0
thread block = 65,16,0
thread block = 66,16,0
thread block = 67,16,0
thread block = 68,16,0
thread block = 69,16,0
thread block = 70,16,0
thread block = 71,16,0
thread block = 72,16,0
thread block = 73,16,0
thread block = 74,16,0
thread block = 75,16,0
thread block = 76,16,0
thread block = 77,16,0
thread block = 78,16,0
thread block = 79,16,0
thread block = 80,16,0
thread block = 81,16,0
thread block = 82,16,0
thread block = 83,16,0
thread block = 84,16,0
thread block = 85,16,0
thread block = 0,17,0
thread block = 1,17,0
thread block = 2,17,0
thread block = 3,17,0
thread block = 4,17,0
thread block = 5,17,0
thread block = 6,17,0
thread block = 7,17,0
thread block = 8,17,0
thread block = 9,17,0
thread block = 10,17,0
thread block = 11,17,0
thread block = 12,17,0
thread block = 13,17,0
thread block = 14,17,0
thread block = 15,17,0
thread block = 16,17,0
thread block = 17,17,0
thread block = 18,17,0
thread block = 19,17,0
thread block = 20,17,0
thread block = 21,17,0
thread block = 22,17,0
thread block = 23,17,0
thread block = 24,17,0
thread block = 25,17,0
thread block = 26,17,0
thread block = 27,17,0
thread block = 28,17,0
thread block = 29,17,0
thread block = 30,17,0
thread block = 31,17,0
thread block = 32,17,0
thread block = 33,17,0
thread block = 34,17,0
thread block = 35,17,0
thread block = 36,17,0
thread block = 37,17,0
thread block = 38,17,0
thread block = 39,17,0
thread block = 40,17,0
thread block = 41,17,0
thread block = 42,17,0
thread block = 43,17,0
thread block = 44,17,0
thread block = 45,17,0
thread block = 46,17,0
thread block = 47,17,0
thread block = 48,17,0
thread block = 49,17,0
thread block = 50,17,0
thread block = 51,17,0
thread block = 52,17,0
thread block = 53,17,0
thread block = 54,17,0
thread block = 55,17,0
thread block = 56,17,0
thread block = 57,17,0
thread block = 58,17,0
thread block = 59,17,0
thread block = 60,17,0
thread block = 61,17,0
thread block = 62,17,0
thread block = 63,17,0
thread block = 64,17,0
thread block = 65,17,0
thread block = 66,17,0
thread block = 67,17,0
thread block = 68,17,0
thread block = 69,17,0
thread block = 70,17,0
thread block = 71,17,0
thread block = 72,17,0
thread block = 73,17,0
thread block = 74,17,0
thread block = 75,17,0
thread block = 76,17,0
thread block = 77,17,0
thread block = 78,17,0
thread block = 79,17,0
thread block = 80,17,0
thread block = 81,17,0
thread block = 82,17,0
thread block = 83,17,0
thread block = 84,17,0
thread block = 85,17,0
thread block = 0,18,0
thread block = 1,18,0
thread block = 2,18,0
thread block = 3,18,0
thread block = 4,18,0
thread block = 5,18,0
thread block = 6,18,0
thread block = 7,18,0
thread block = 8,18,0
thread block = 9,18,0
thread block = 10,18,0
thread block = 11,18,0
thread block = 12,18,0
thread block = 13,18,0
thread block = 14,18,0
thread block = 15,18,0
thread block = 16,18,0
thread block = 17,18,0
thread block = 18,18,0
thread block = 19,18,0
thread block = 20,18,0
thread block = 21,18,0
thread block = 22,18,0
thread block = 23,18,0
thread block = 24,18,0
thread block = 25,18,0
thread block = 26,18,0
thread block = 27,18,0
thread block = 28,18,0
thread block = 29,18,0
thread block = 30,18,0
thread block = 31,18,0
thread block = 32,18,0
thread block = 33,18,0
thread block = 34,18,0
thread block = 35,18,0
thread block = 36,18,0
thread block = 37,18,0
thread block = 38,18,0
thread block = 39,18,0
thread block = 40,18,0
thread block = 41,18,0
thread block = 42,18,0
thread block = 43,18,0
thread block = 44,18,0
thread block = 45,18,0
thread block = 46,18,0
thread block = 47,18,0
thread block = 48,18,0
thread block = 49,18,0
thread block = 50,18,0
thread block = 51,18,0
thread block = 52,18,0
thread block = 53,18,0
thread block = 54,18,0
thread block = 55,18,0
thread block = 56,18,0
thread block = 57,18,0
thread block = 58,18,0
thread block = 59,18,0
thread block = 60,18,0
thread block = 61,18,0
thread block = 62,18,0
thread block = 63,18,0
thread block = 64,18,0
thread block = 65,18,0
thread block = 66,18,0
thread block = 67,18,0
thread block = 68,18,0
thread block = 69,18,0
thread block = 70,18,0
thread block = 71,18,0
thread block = 72,18,0
thread block = 73,18,0
thread block = 74,18,0
thread block = 75,18,0
thread block = 76,18,0
thread block = 77,18,0
thread block = 78,18,0
thread block = 79,18,0
thread block = 80,18,0
thread block = 81,18,0
thread block = 82,18,0
thread block = 83,18,0
thread block = 84,18,0
thread block = 85,18,0
thread block = 0,19,0
thread block = 1,19,0
thread block = 2,19,0
thread block = 3,19,0
thread block = 4,19,0
thread block = 5,19,0
thread block = 6,19,0
thread block = 7,19,0
thread block = 8,19,0
thread block = 9,19,0
thread block = 10,19,0
thread block = 11,19,0
thread block = 12,19,0
thread block = 13,19,0
thread block = 14,19,0
thread block = 15,19,0
thread block = 16,19,0
thread block = 17,19,0
thread block = 18,19,0
thread block = 19,19,0
thread block = 20,19,0
thread block = 21,19,0
thread block = 22,19,0
thread block = 23,19,0
thread block = 24,19,0
thread block = 25,19,0
thread block = 26,19,0
thread block = 27,19,0
thread block = 28,19,0
thread block = 29,19,0
thread block = 30,19,0
thread block = 31,19,0
thread block = 32,19,0
thread block = 33,19,0
thread block = 34,19,0
thread block = 35,19,0
thread block = 36,19,0
thread block = 37,19,0
thread block = 38,19,0
thread block = 39,19,0
thread block = 40,19,0
thread block = 41,19,0
thread block = 42,19,0
thread block = 43,19,0
thread block = 44,19,0
thread block = 45,19,0
thread block = 46,19,0
thread block = 47,19,0
thread block = 48,19,0
thread block = 49,19,0
thread block = 50,19,0
thread block = 51,19,0
thread block = 52,19,0
thread block = 53,19,0
thread block = 54,19,0
thread block = 55,19,0
thread block = 56,19,0
thread block = 57,19,0
thread block = 58,19,0
thread block = 59,19,0
thread block = 60,19,0
thread block = 61,19,0
thread block = 62,19,0
thread block = 63,19,0
thread block = 64,19,0
thread block = 65,19,0
thread block = 66,19,0
thread block = 67,19,0
thread block = 68,19,0
thread block = 69,19,0
thread block = 70,19,0
thread block = 71,19,0
thread block = 72,19,0
thread block = 73,19,0
thread block = 74,19,0
thread block = 75,19,0
thread block = 76,19,0
thread block = 77,19,0
thread block = 78,19,0
thread block = 79,19,0
thread block = 80,19,0
thread block = 81,19,0
thread block = 82,19,0
thread block = 83,19,0
thread block = 84,19,0
thread block = 85,19,0
thread block = 0,20,0
thread block = 1,20,0
thread block = 2,20,0
thread block = 3,20,0
thread block = 4,20,0
thread block = 5,20,0
thread block = 6,20,0
thread block = 7,20,0
thread block = 8,20,0
thread block = 9,20,0
thread block = 10,20,0
thread block = 11,20,0
thread block = 12,20,0
thread block = 13,20,0
thread block = 14,20,0
thread block = 15,20,0
thread block = 16,20,0
thread block = 17,20,0
thread block = 18,20,0
thread block = 19,20,0
thread block = 20,20,0
thread block = 21,20,0
thread block = 22,20,0
thread block = 23,20,0
thread block = 24,20,0
thread block = 25,20,0
thread block = 26,20,0
thread block = 27,20,0
thread block = 28,20,0
thread block = 29,20,0
thread block = 30,20,0
thread block = 31,20,0
thread block = 32,20,0
thread block = 33,20,0
thread block = 34,20,0
thread block = 35,20,0
thread block = 36,20,0
thread block = 37,20,0
thread block = 38,20,0
thread block = 39,20,0
thread block = 40,20,0
thread block = 41,20,0
thread block = 42,20,0
thread block = 43,20,0
thread block = 44,20,0
thread block = 45,20,0
thread block = 46,20,0
thread block = 47,20,0
thread block = 48,20,0
thread block = 49,20,0
thread block = 50,20,0
thread block = 51,20,0
thread block = 52,20,0
thread block = 53,20,0
thread block = 54,20,0
thread block = 55,20,0
thread block = 56,20,0
thread block = 57,20,0
thread block = 58,20,0
thread block = 59,20,0
thread block = 60,20,0
thread block = 61,20,0
thread block = 62,20,0
thread block = 63,20,0
thread block = 64,20,0
thread block = 65,20,0
thread block = 66,20,0
thread block = 67,20,0
thread block = 68,20,0
thread block = 69,20,0
thread block = 70,20,0
thread block = 71,20,0
thread block = 72,20,0
thread block = 73,20,0
thread block = 74,20,0
thread block = 75,20,0
thread block = 76,20,0
thread block = 77,20,0
thread block = 78,20,0
thread block = 79,20,0
thread block = 80,20,0
thread block = 81,20,0
thread block = 82,20,0
thread block = 83,20,0
thread block = 84,20,0
thread block = 85,20,0
thread block = 0,21,0
thread block = 1,21,0
thread block = 2,21,0
thread block = 3,21,0
thread block = 4,21,0
thread block = 5,21,0
thread block = 6,21,0
thread block = 7,21,0
thread block = 8,21,0
thread block = 9,21,0
thread block = 10,21,0
thread block = 11,21,0
thread block = 12,21,0
thread block = 13,21,0
thread block = 14,21,0
thread block = 15,21,0
thread block = 16,21,0
thread block = 17,21,0
thread block = 18,21,0
thread block = 19,21,0
thread block = 20,21,0
thread block = 21,21,0
thread block = 22,21,0
thread block = 23,21,0
thread block = 24,21,0
thread block = 25,21,0
thread block = 26,21,0
thread block = 27,21,0
thread block = 28,21,0
thread block = 29,21,0
thread block = 30,21,0
thread block = 31,21,0
thread block = 32,21,0
thread block = 33,21,0
thread block = 34,21,0
thread block = 35,21,0
thread block = 36,21,0
thread block = 37,21,0
thread block = 38,21,0
thread block = 39,21,0
thread block = 40,21,0
thread block = 41,21,0
thread block = 42,21,0
thread block = 43,21,0
thread block = 44,21,0
thread block = 45,21,0
thread block = 46,21,0
thread block = 47,21,0
thread block = 48,21,0
thread block = 49,21,0
thread block = 50,21,0
thread block = 51,21,0
thread block = 52,21,0
thread block = 53,21,0
thread block = 54,21,0
thread block = 55,21,0
thread block = 56,21,0
thread block = 57,21,0
thread block = 58,21,0
thread block = 59,21,0
thread block = 60,21,0
thread block = 61,21,0
thread block = 62,21,0
thread block = 63,21,0
thread block = 64,21,0
thread block = 65,21,0
thread block = 66,21,0
thread block = 67,21,0
thread block = 68,21,0
thread block = 69,21,0
thread block = 70,21,0
thread block = 71,21,0
thread block = 72,21,0
thread block = 73,21,0
thread block = 74,21,0
thread block = 75,21,0
thread block = 76,21,0
thread block = 77,21,0
thread block = 78,21,0
thread block = 79,21,0
thread block = 80,21,0
thread block = 81,21,0
thread block = 82,21,0
thread block = 83,21,0
thread block = 84,21,0
thread block = 85,21,0
thread block = 0,22,0
thread block = 1,22,0
thread block = 2,22,0
thread block = 3,22,0
thread block = 4,22,0
thread block = 5,22,0
thread block = 6,22,0
thread block = 7,22,0
thread block = 8,22,0
thread block = 9,22,0
thread block = 10,22,0
thread block = 11,22,0
thread block = 12,22,0
thread block = 13,22,0
thread block = 14,22,0
thread block = 15,22,0
thread block = 16,22,0
thread block = 17,22,0
thread block = 18,22,0
thread block = 19,22,0
thread block = 20,22,0
thread block = 21,22,0
thread block = 22,22,0
thread block = 23,22,0
thread block = 24,22,0
thread block = 25,22,0
thread block = 26,22,0
thread block = 27,22,0
thread block = 28,22,0
thread block = 29,22,0
thread block = 30,22,0
thread block = 31,22,0
thread block = 32,22,0
thread block = 33,22,0
thread block = 34,22,0
thread block = 35,22,0
thread block = 36,22,0
thread block = 37,22,0
thread block = 38,22,0
thread block = 39,22,0
thread block = 40,22,0
thread block = 41,22,0
thread block = 42,22,0
thread block = 43,22,0
thread block = 44,22,0
thread block = 45,22,0
thread block = 46,22,0
thread block = 47,22,0
thread block = 48,22,0
thread block = 49,22,0
thread block = 50,22,0
thread block = 51,22,0
thread block = 52,22,0
thread block = 53,22,0
thread block = 54,22,0
thread block = 55,22,0
thread block = 56,22,0
thread block = 57,22,0
thread block = 58,22,0
thread block = 59,22,0
thread block = 60,22,0
thread block = 61,22,0
thread block = 62,22,0
thread block = 63,22,0
thread block = 64,22,0
thread block = 65,22,0
thread block = 66,22,0
thread block = 67,22,0
thread block = 68,22,0
thread block = 69,22,0
thread block = 70,22,0
thread block = 71,22,0
thread block = 72,22,0
thread block = 73,22,0
thread block = 74,22,0
thread block = 75,22,0
thread block = 76,22,0
thread block = 77,22,0
thread block = 78,22,0
thread block = 79,22,0
thread block = 80,22,0
thread block = 81,22,0
thread block = 82,22,0
thread block = 83,22,0
thread block = 84,22,0
thread block = 85,22,0
thread block = 0,23,0
thread block = 1,23,0
thread block = 2,23,0
thread block = 3,23,0
thread block = 4,23,0
thread block = 5,23,0
thread block = 6,23,0
thread block = 7,23,0
thread block = 8,23,0
thread block = 9,23,0
thread block = 10,23,0
thread block = 11,23,0
thread block = 12,23,0
thread block = 13,23,0
thread block = 14,23,0
thread block = 15,23,0
thread block = 16,23,0
thread block = 17,23,0
thread block = 18,23,0
thread block = 19,23,0
thread block = 20,23,0
thread block = 21,23,0
thread block = 22,23,0
thread block = 23,23,0
thread block = 24,23,0
thread block = 25,23,0
thread block = 26,23,0
thread block = 27,23,0
thread block = 28,23,0
thread block = 29,23,0
thread block = 30,23,0
thread block = 31,23,0
thread block = 32,23,0
thread block = 33,23,0
thread block = 34,23,0
thread block = 35,23,0
thread block = 36,23,0
thread block = 37,23,0
thread block = 38,23,0
thread block = 39,23,0
thread block = 40,23,0
thread block = 41,23,0
thread block = 42,23,0
thread block = 43,23,0
thread block = 44,23,0
thread block = 45,23,0
thread block = 46,23,0
thread block = 47,23,0
thread block = 48,23,0
thread block = 49,23,0
thread block = 50,23,0
thread block = 51,23,0
thread block = 52,23,0
thread block = 53,23,0
thread block = 54,23,0
thread block = 55,23,0
thread block = 56,23,0
thread block = 57,23,0
thread block = 58,23,0
thread block = 59,23,0
thread block = 60,23,0
thread block = 61,23,0
thread block = 62,23,0
thread block = 63,23,0
thread block = 64,23,0
thread block = 65,23,0
thread block = 66,23,0
thread block = 67,23,0
thread block = 68,23,0
thread block = 69,23,0
thread block = 70,23,0
thread block = 71,23,0
thread block = 72,23,0
thread block = 73,23,0
thread block = 74,23,0
thread block = 75,23,0
thread block = 76,23,0
thread block = 77,23,0
thread block = 78,23,0
thread block = 79,23,0
thread block = 80,23,0
thread block = 81,23,0
thread block = 82,23,0
thread block = 83,23,0
thread block = 84,23,0
thread block = 85,23,0
thread block = 0,24,0
thread block = 1,24,0
thread block = 2,24,0
thread block = 3,24,0
thread block = 4,24,0
thread block = 5,24,0
thread block = 6,24,0
thread block = 7,24,0
thread block = 8,24,0
thread block = 9,24,0
thread block = 10,24,0
thread block = 11,24,0
thread block = 12,24,0
thread block = 13,24,0
thread block = 14,24,0
thread block = 15,24,0
thread block = 16,24,0
thread block = 17,24,0
thread block = 18,24,0
thread block = 19,24,0
thread block = 20,24,0
thread block = 21,24,0
thread block = 22,24,0
thread block = 23,24,0
thread block = 24,24,0
thread block = 25,24,0
thread block = 26,24,0
thread block = 27,24,0
thread block = 28,24,0
thread block = 29,24,0
thread block = 30,24,0
thread block = 31,24,0
thread block = 32,24,0
thread block = 33,24,0
thread block = 34,24,0
thread block = 35,24,0
thread block = 36,24,0
thread block = 37,24,0
thread block = 38,24,0
thread block = 39,24,0
thread block = 40,24,0
thread block = 41,24,0
thread block = 42,24,0
thread block = 43,24,0
thread block = 44,24,0
thread block = 45,24,0
thread block = 46,24,0
thread block = 47,24,0
thread block = 48,24,0
thread block = 49,24,0
thread block = 50,24,0
thread block = 51,24,0
thread block = 52,24,0
thread block = 53,24,0
thread block = 54,24,0
thread block = 55,24,0
thread block = 56,24,0
thread block = 57,24,0
thread block = 58,24,0
thread block = 59,24,0
thread block = 60,24,0
thread block = 61,24,0
thread block = 62,24,0
thread block = 63,24,0
thread block = 64,24,0
thread block = 65,24,0
thread block = 66,24,0
thread block = 67,24,0
thread block = 68,24,0
thread block = 69,24,0
thread block = 70,24,0
thread block = 71,24,0
thread block = 72,24,0
thread block = 73,24,0
thread block = 74,24,0
thread block = 75,24,0
thread block = 76,24,0
thread block = 77,24,0
thread block = 78,24,0
thread block = 79,24,0
thread block = 80,24,0
thread block = 81,24,0
thread block = 82,24,0
thread block = 83,24,0
thread block = 84,24,0
thread block = 85,24,0
thread block = 0,25,0
thread block = 1,25,0
thread block = 2,25,0
thread block = 3,25,0
thread block = 4,25,0
thread block = 5,25,0
thread block = 6,25,0
thread block = 7,25,0
thread block = 8,25,0
[...]
Bank_Level_Parallism = 1.241162
Bank_Level_Parallism_Col = 1.136444
Bank_Level_Parallism_Ready = 1.014610
write_to_read_ratio_blp_rw_average = 0.251935
GrpLevelPara = 1.119514 

BW Util details:
bwutil = 0.056377 
total_CMD = 1056673 
util_bw = 59572 
Wasted_Col = 124557 
Wasted_Row = 88888 
Idle = 783656 

BW Util Bottlenecks: 
RCDc_limit = 79615 
RCDWRc_limit = 10849 
WTRc_limit = 14458 
RTWc_limit = 12238 
CCDLc_limit = 30968 
rwq = 0 
CCDLc_limit_alone = 29743 
WTRc_limit_alone = 13749 
RTWc_limit_alone = 11722 

Commands details: 
total_CMD = 1056673 
n_nop = 1013750 
Read = 21658 
Write = 0 
L2_Alloc = 0 
L2_WB = 8128 
n_act = 6615 
n_pre = 6599 
n_ref = 0 
n_req = 23690 
total_req = 29786 

Dual Bus Interface Util: 
issued_total_row = 13214 
issued_total_col = 29786 
Row_Bus_Util =  0.012505 
CoL_Bus_Util = 0.028188 
Either_Row_CoL_Bus_Util = 0.040621 
Issued_on_Two_Bus_Simul_Util = 0.000073 
issued_two_Eff = 0.001794 
queue_avg = 0.235601 


dram_util_bins: 0 0 0 0 0 0 0 0 0 0
dram_eff_bins: 0 0 0 0 0 0 0 0 0 0
mrqq: max=13 avg=0.235601
Memory Partition 7: 
Cache L2_bank_014:
MSHR contents

Cache L2_bank_015:
MSHR contents

In Dram Latency Queue (total = 0): 
DRAM[7]: 16 bks, busW=4 BL=8 CL=16, tRRD=8 tCCD=2, tRCD=16 tRAS=37 tRP=16 tRC=52
n_cmd=1056673 n_nop=1011168 n_act=7157 n_pre=7141 n_ref_event=0 n_req=24940 n_rd=22828 n_rd_L2_A=0 n_write=0 n_wr_bk=8448 bw_util=0.0592
n_activity=440194 dram_eff=0.1421
bk0: 1399a 1036627i bk1: 1363a 1035760i bk2: 1509a 1035195i bk3: 1223a 1037547i bk4: 1522a 1033026i bk5: 1297a 1035933i bk6: 1506a 1034787i bk7: 1461a 1036081i bk8: 1435a 1037259i bk9: 1384a 1035940i bk10: 1466a 1036688i bk11: 1506a 1036833i bk12: 1404a 1035565i bk13: 1516a 1034827i bk14: 1396a 1034330i bk15: 1441a 1034666i 

------------------------------------------------------------------------

Row_Buffer_Locality = 0.713192
Row_Buffer_Locality_read = 0.747547
Row_Buffer_Locality_write = 0.341856
Bank_Level_Parallism = 1.246516
Bank_Level_Parallism_Col = 1.138081
Bank_Level_Parallism_Ready = 1.015760
write_to_read_ratio_blp_rw_average = 0.245568
GrpLevelPara = 1.121171 

BW Util details:
bwutil = 0.059197 
total_CMD = 1056673 
util_bw = 62552 
Wasted_Col = 134275 
Wasted_Row = 97158 
Idle = 762688 

BW Util Bottlenecks: 
RCDc_limit = 87054 
RCDWRc_limit = 11232 
WTRc_limit = 15695 
RTWc_limit = 13125 
CCDLc_limit = 32745 
rwq = 0 
CCDLc_limit_alone = 31516 
WTRc_limit_alone = 14989 
RTWc_limit_alone = 12602 

Commands details: 
total_CMD = 1056673 
n_nop = 1011168 
Read = 22828 
Write = 0 
L2_Alloc = 0 
L2_WB = 8448 
n_act = 7157 
n_pre = 7141 
n_ref = 0 
n_req = 24940 
total_req = 31276 

Dual Bus Interface Util: 
issued_total_row = 14298 
issued_total_col = 31276 
Row_Bus_Util =  0.013531 
CoL_Bus_Util = 0.029599 
Either_Row_CoL_Bus_Util = 0.043064 
Issued_on_Two_Bus_Simul_Util = 0.000065 
issued_two_Eff = 0.001516 
queue_avg = 0.282377 


dram_util_bins: 0 0 0 0 0 0 0 0 0 0
dram_eff_bins: 0 0 0 0 0 0 0 0 0 0
mrqq: max=15 avg=0.282377
Memory Partition 8: 
Cache L2_bank_016:
MSHR contents

Cache L2_bank_017:
MSHR contents

In Dram Latency Queue (total = 0): 
DRAM[8]: 16 bks, busW=4 BL=8 CL=16, tRRD=8 tCCD=2, tRCD=16 tRAS=37 tRP=16 tRC=52
n_cmd=1056673 n_nop=1013499 n_act=6717 n_pre=6701 n_ref_event=0 n_req=23749 n_rd=21722 n_rd_L2_A=0 n_write=0 n_wr_bk=8108 bw_util=0.05646
n_activity=419704 dram_eff=0.1421
bk0: 1124a 1041125i bk1: 1223a 1039485i bk2: 1305a 1036287i bk3: 1261a 1040032i bk4: 1290a 1037717i bk5: 1419a 1034397i bk6: 1330a 1038280i bk7: 1307a 1036568i bk8: 1368a 1036064i bk9: 1491a 1033525i bk10: 1562a 1035674i bk11: 1426a 1037501i bk12: 1374a 1036963i bk13: 1364a 1038135i bk14: 1464a 1035424i bk15: 1414a 1036135i 

------------------------------------------------------------------------

Row_Buffer_Locality = 0.717293
Row_Buffer_Locality_read = 0.754535
Row_Buffer_Locality_write = 0.318204
Bank_Level_Parallism = 1.246344
Bank_Level_Parallism_Col = 1.138443
Bank_Level_Parallism_Ready = 1.015263
write_to_read_ratio_blp_rw_average = 0.255937
GrpLevelPara = 1.120652 

BW Util details:
bwutil = 0.056460 
total_CMD = 1056673 
util_bw = 59660 
Wasted_Col = 125798 
Wasted_Row = 90184 
Idle = 781031 

BW Util Bottlenecks: 
RCDc_limit = 80489 
RCDWRc_limit = 11021 
WTRc_limit = 13614 
RTWc_limit = 13382 
CCDLc_limit = 30996 
rwq = 0 
CCDLc_limit_alone = 29695 
WTRc_limit_alone = 12913 
RTWc_limit_alone = 12782 

Commands details: 
total_CMD = 1056673 
n_nop = 1013499 
Read = 21722 
Write = 0 
L2_Alloc = 0 
L2_WB = 8108 
n_act = 6717 
n_pre = 6701 
n_ref = 0 
n_req = 23749 
total_req = 29830 

Dual Bus Interface Util: 
issued_total_row = 13418 
issued_total_col = 29830 
Row_Bus_Util =  0.012698 
CoL_Bus_Util = 0.028230 
Either_Row_CoL_Bus_Util = 0.040858 
Issued_on_Two_Bus_Simul_Util = 0.000070 
issued_two_Eff = 0.001714 
queue_avg = 0.239844 


dram_util_bins: 0 0 0 0 0 0 0 0 0 0
dram_eff_bins: 0 0 0 0 0 0 0 0 0 0
mrqq: max=13 avg=0.239844
Memory Partition 9: 
Cache L2_bank_018:
MSHR contents

Cache L2_bank_019:
MSHR contents

In Dram Latency Queue (total = 0): 
DRAM[9]: 16 bks, busW=4 BL=8 CL=16, tRRD=8 tCCD=2, tRCD=16 tRAS=37 tRP=16 tRC=52
n_cmd=1056673 n_nop=1013127 n_act=6774 n_pre=6758 n_ref_event=0 n_req=23981 n_rd=21950 n_rd_L2_A=0 n_write=0 n_wr_bk=8124 bw_util=0.05692
n_activity=426327 dram_eff=0.1411
bk0: 1236a 1038087i bk1: 1292a 1037682i bk2: 1333a 1037407i bk3: 1327a 1037154i bk4: 1342a 1036704i bk5: 1207a 1038162i bk6: 1424a 1036355i bk7: 1404a 1036389i bk8: 1368a 1036905i bk9: 1421a 1036459i bk10: 1460a 1035829i bk11: 1285a 1038911i bk12: 1404a 1037249i bk13: 1494a 1035626i bk14: 1305a 1038077i bk15: 1648a 1034478i 

------------------------------------------------------------------------

Row_Buffer_Locality = 0.717693
Row_Buffer_Locality_read = 0.754077
Row_Buffer_Locality_write = 0.324471
Bank_Level_Parallism = 1.229859
Bank_Level_Parallism_Col = 1.130136
Bank_Level_Parallism_Ready = 1.013867
write_to_read_ratio_blp_rw_average = 0.253333
GrpLevelPara = 1.112944 

BW Util details:
bwutil = 0.056922 
total_CMD = 1056673 
util_bw = 60148 
Wasted_Col = 127793 
Wasted_Row = 92881 
Idle = 775851 

BW Util Bottlenecks: 
RCDc_limit = 81785 
RCDWRc_limit = 11085 
WTRc_limit = 13526 
RTWc_limit = 13103 
CCDLc_limit = 31645 
rwq = 0 
CCDLc_limit_alone = 30432 
WTRc_limit_alone = 12901 
RTWc_limit_alone = 12515 

Commands details: 
total_CMD = 1056673 
n_nop = 1013127 
Read = 21950 
Write = 0 
L2_Alloc = 0 
L2_WB = 8124 
n_act = 6774 
n_pre = 6758 
n_ref = 0 
n_req = 23981 
total_req = 30074 

Dual Bus Interface Util: 
issued_total_row = 13532 
issued_total_col = 30074 
Row_Bus_Util =  0.012806 
CoL_Bus_Util = 0.028461 
Either_Row_CoL_Bus_Util = 0.041210 
Issued_on_Two_Bus_Simul_Util = 0.000057 
issued_two_Eff = 0.001378 
queue_avg = 0.250776 


dram_util_bins: 0 0 0 0 0 0 0 0 0 0
dram_eff_bins: 0 0 0 0 0 0 0 0 0 0
mrqq: max=12 avg=0.250776
Memory Partition 10: 
Cache L2_bank_020:
MSHR contents

Cache L2_bank_021:
MSHR contents

In Dram Latency Queue (total = 0): 
DRAM[10]: 16 bks, busW=4 BL=8 CL=16, tRRD=8 tCCD=2, tRCD=16 tRAS=37 tRP=16 tRC=52
n_cmd=1056673 n_nop=1011188 n_act=7034 n_pre=7018 n_ref_event=0 n_req=24959 n_rd=22782 n_rd_L2_A=0 n_write=0 n_wr_bk=8708 bw_util=0.0596
n_activity=436737 dram_eff=0.1442
bk0: 1407a 1035402i bk1: 1272a 1037582i bk2: 1359a 1036417i bk3: 1266a 1036991i bk4: 1458a 1036344i bk5: 1414a 1035073i bk6: 1470a 1034880i bk7: 1462a 1037277i bk8: 1510a 1034800i bk9: 1485a 1035017i bk10: 1477a 1036349i bk11: 1498a 1035887i bk12: 1476a 1034762i bk13: 1482a 1034303i bk14: 1356a 1037572i bk15: 1390a 1036167i 

------------------------------------------------------------------------

Row_Buffer_Locality = 0.718338
Row_Buffer_Locality_read = 0.752743
Row_Buffer_Locality_write = 0.358291
Bank_Level_Parallism = 1.255786
Bank_Level_Parallism_Col = 1.146613
Bank_Level_Parallism_Ready = 1.017701
write_to_read_ratio_blp_rw_average = 0.258260
GrpLevelPara = 1.126630 

BW Util details:
bwutil = 0.059602 
total_CMD = 1056673 
util_bw = 62980 
Wasted_Col = 132980 
Wasted_Row = 93282 
Idle = 767431 

BW Util Bottlenecks: 
RCDc_limit = 84910 
RCDWRc_limit = 11155 
WTRc_limit = 15686 
RTWc_limit = 14687 
CCDLc_limit = 33229 
rwq = 0 
CCDLc_limit_alone = 31814 
WTRc_limit_alone = 14890 
RTWc_limit_alone = 14068 

Commands details: 
total_CMD = 1056673 
n_nop = 1011188 
Read = 22782 
Write = 0 
L2_Alloc = 0 
L2_WB = 8708 
n_act = 7034 
n_pre = 7018 
n_ref = 0 
n_req = 24959 
total_req = 31490 

Dual Bus Interface Util: 
issued_total_row = 14052 
issued_total_col = 31490 
Row_Bus_Util =  0.013298 
CoL_Bus_Util = 0.029801 
Either_Row_CoL_Bus_Util = 0.043045 
Issued_on_Two_Bus_Simul_Util = 0.000054 
issued_two_Eff = 0.001253 
queue_avg = 0.260581 


dram_util_bins: 0 0 0 0 0 0 0 0 0 0
dram_eff_bins: 0 0 0 0 0 0 0 0 0 0
mrqq: max=14 avg=0.260581
Memory Partition 11: 
Cache L2_bank_022:
MSHR contents

Cache L2_bank_023:
MSHR contents

In Dram Latency Queue (total = 0): 
DRAM[11]: 16 bks, busW=4 BL=8 CL=16, tRRD=8 tCCD=2, tRCD=16 tRAS=37 tRP=16 tRC=52
n_cmd=1056673 n_nop=1013342 n_act=6787 n_pre=6771 n_ref_event=0 n_req=23609 n_rd=21535 n_rd_L2_A=0 n_write=0 n_wr_bk=8296 bw_util=0.05646
n_activity=421125 dram_eff=0.1417
bk0: 1380a 1035633i bk1: 1303a 1036831i bk2: 1232a 1037310i bk3: 1363a 1037694i bk4: 1317a 1036833i bk5: 1315a 1036825i bk6: 1211a 1039565i bk7: 1391a 1036916i bk8: 1268a 1037571i bk9: 1442a 1035622i bk10: 1287a 1038378i bk11: 1487a 1035978i bk12: 1350a 1036091i bk13: 1312a 1037212i bk14: 1355a 1035851i bk15: 1522a 1036728i 

------------------------------------------------------------------------

Row_Buffer_Locality = 0.712694
Row_Buffer_Locality_read = 0.750128
Row_Buffer_Locality_write = 0.324012
Bank_Level_Parallism = 1.245952
Bank_Level_Parallism_Col = 1.137832
Bank_Level_Parallism_Ready = 1.014788
write_to_read_ratio_blp_rw_average = 0.258140
GrpLevelPara = 1.120856 

BW Util details:
bwutil = 0.056462 
total_CMD = 1056673 
util_bw = 59662 
Wasted_Col = 126525 
Wasted_Row = 91005 
Idle = 779481 

BW Util Bottlenecks: 
RCDc_limit = 81287 
RCDWRc_limit = 11261 
WTRc_limit = 14137 
RTWc_limit = 13303 
CCDLc_limit = 31054 
rwq = 0 
CCDLc_limit_alone = 29804 
WTRc_limit_alone = 13499 
RTWc_limit_alone = 12691 

Commands details: 
total_CMD = 1056673 
n_nop = 1013342 
Read = 21535 
Write = 0 
L2_Alloc = 0 
L2_WB = 8296 
n_act = 6787 
n_pre = 6771 
n_ref = 0 
n_req = 23609 
total_req = 29831 

Dual Bus Interface Util: 
issued_total_row = 13558 
issued_total_col = 29831 
Row_Bus_Util =  0.012831 
CoL_Bus_Util = 0.028231 
Either_Row_CoL_Bus_Util = 0.041007 
Issued_on_Two_Bus_Simul_Util = 0.000055 
issued_two_Eff = 0.001339 
queue_avg = 0.240279 


dram_util_bins: 0 0 0 0 0 0 0 0 0 0
dram_eff_bins: 0 0 0 0 0 0 0 0 0 0
mrqq: max=13 avg=0.240279

========= L2 cache stats =========
L2_cache_bank[0]: Access = 35588, Miss = 17696, Miss_rate = 0.497, Pending_hits = 4792, Reservation_fails = 0
L2_cache_bank[1]: Access = 35634, Miss = 18091, Miss_rate = 0.508, Pending_hits = 4758, Reservation_fails = 0
L2_cache_bank[2]: Access = 36985, Miss = 18714, Miss_rate = 0.506, Pending_hits = 4908, Reservation_fails = 0
L2_cache_bank[3]: Access = 35645, Miss = 18299, Miss_rate = 0.513, Pending_hits = 4736, Reservation_fails = 0
L2_cache_bank[4]: Access = 36095, Miss = 17981, Miss_rate = 0.498, Pending_hits = 4686, Reservation_fails = 0
L2_cache_bank[5]: Access = 36211, Miss = 18080, Miss_rate = 0.499, Pending_hits = 4866, Reservation_fails = 0
L2_cache_bank[6]: Access = 37114, Miss = 18573, Miss_rate = 0.500, Pending_hits = 4913, Reservation_fails = 0
L2_cache_bank[7]: Access = 36609, Miss = 18184, Miss_rate = 0.497, Pending_hits = 5076, Reservation_fails = 0
L2_cache_bank[8]: Access = 36962, Miss = 18560, Miss_rate = 0.502, Pending_hits = 5012, Reservation_fails = 0
L2_cache_bank[9]: Access = 35882, Miss = 17678, Miss_rate = 0.493, Pending_hits = 4716, Reservation_fails = 0
L2_cache_bank[10]: Access = 35334, Miss = 17821, Miss_rate = 0.504, Pending_hits = 4561, Reservation_fails = 0
L2_cache_bank[11]: Access = 36303, Miss = 18169, Miss_rate = 0.500, Pending_hits = 4828, Reservation_fails = 0
L2_cache_bank[12]: Access = 36830, Miss = 18622, Miss_rate = 0.506, Pending_hits = 5007, Reservation_fails = 0
L2_cache_bank[13]: Access = 35367, Miss = 17642, Miss_rate = 0.499, Pending_hits = 4565, Reservation_fails = 0
L2_cache_bank[14]: Access = 37941, Miss = 19126, Miss_rate = 0.504, Pending_hits = 5189, Reservation_fails = 0
L2_cache_bank[15]: Access = 36980, Miss = 18398, Miss_rate = 0.498, Pending_hits = 5073, Reservation_fails = 0
L2_cache_bank[16]: Access = 37562, Miss = 18099, Miss_rate = 0.482, Pending_hits = 4912, Reservation_fails = 0
L2_cache_bank[17]: Access = 35483, Miss = 18140, Miss_rate = 0.511, Pending_hits = 4828, Reservation_fails = 0
L2_cache_bank[18]: Access = 36116, Miss = 18110, Miss_rate = 0.501, Pending_hits = 4825, Reservation_fails = 0
L2_cache_bank[19]: Access = 36326, Miss = 18231, Miss_rate = 0.502, Pending_hits = 4902, Reservation_fails = 0
L2_cache_bank[20]: Access = 37147, Miss = 18711, Miss_rate = 0.504, Pending_hits = 5044, Reservation_fails = 0
L2_cache_bank[21]: Access = 38584, Miss = 19130, Miss_rate = 0.496, Pending_hits = 5088, Reservation_fails = 0
L2_cache_bank[22]: Access = 36111, Miss = 18492, Miss_rate = 0.512, Pending_hits = 4750, Reservation_fails = 0
L2_cache_bank[23]: Access = 35345, Miss = 17801, Miss_rate = 0.504, Pending_hits = 4714, Reservation_fails = 0
L2_total_cache_accesses = 874154
L2_total_cache_misses = 438348
L2_total_cache_miss_rate = 0.5015
L2_total_cache_pending_hits = 116749
L2_total_cache_reservation_fails = 0
L2_total_cache_breakdown:
	L2_cache_stats_breakdown[GLOBAL_ACC_R][HIT] = 319057
	L2_cache_stats_breakdown[GLOBAL_ACC_R][HIT_RESERVED] = 116749
	L2_cache_stats_breakdown[GLOBAL_ACC_R][MISS] = 67347
	L2_cache_stats_breakdown[GLOBAL_ACC_R][RESERVATION_FAIL] = 0
	L2_cache_stats_breakdown[GLOBAL_ACC_R][SECTOR_MISS] = 195897
	L2_cache_stats_breakdown[GLOBAL_ACC_R][MSHR_HIT] = 116749
	L2_cache_stats_breakdown[LOCAL_ACC_R][HIT] = 0
	L2_cache_stats_breakdown[LOCAL_ACC_R][HIT_RESERVED] = 0
	L2_cache_stats_breakdown[LOCAL_ACC_R][MISS] = 0
	L2_cache_stats_breakdown[LOCAL_ACC_R][RESERVATION_FAIL] = 0
	L2_cache_stats_breakdown[LOCAL_ACC_R][SECTOR_MISS] = 0
	L2_cache_stats_breakdown[LOCAL_ACC_R][MSHR_HIT] = 0
	L2_cache_stats_breakdown[CONST_ACC_R][HIT] = 0
	L2_cache_stats_breakdown[CONST_ACC_R][HIT_RESERVED] = 0
	L2_cache_stats_breakdown[CONST_ACC_R][MISS] = 0
	L2_cache_stats_breakdown[CONST_ACC_R][RESERVATION_FAIL] = 0
	L2_cache_stats_breakdown[CONST_ACC_R][SECTOR_MISS] = 0
	L2_cache_stats_breakdown[CONST_ACC_R][MSHR_HIT] = 0
	L2_cache_stats_breakdown[TEXTURE_ACC_R][HIT] = 0
	L2_cache_stats_breakdown[TEXTURE_ACC_R][HIT_RESERVED] = 0
	L2_cache_stats_breakdown[TEXTURE_ACC_R][MISS] = 0
	L2_cache_stats_breakdown[TEXTURE_ACC_R][RESERVATION_FAIL] = 0
	L2_cache_stats_breakdown[TEXTURE_ACC_R][SECTOR_MISS] = 0
	L2_cache_stats_breakdown[TEXTURE_ACC_R][MSHR_HIT] = 0
	L2_cache_stats_breakdown[GLOBAL_ACC_W][HIT] = 0
	L2_cache_stats_breakdown[GLOBAL_ACC_W][HIT_RESERVED] = 0
	L2_cache_stats_breakdown[GLOBAL_ACC_W][MISS] = 32768
	L2_cache_stats_breakdown[GLOBAL_ACC_W][RESERVATION_FAIL] = 0
	L2_cache_stats_breakdown[GLOBAL_ACC_W][SECTOR_MISS] = 142336
	L2_cache_stats_breakdown[GLOBAL_ACC_W][MSHR_HIT] = 0
	L2_cache_stats_breakdown[LOCAL_ACC_W][HIT] = 0
	L2_cache_stats_breakdown[LOCAL_ACC_W][HIT_RESERVED] = 0
	L2_cache_stats_breakdown[LOCAL_ACC_W][MISS] = 0
	L2_cache_stats_breakdown[LOCAL_ACC_W][RESERVATION_FAIL] = 0
	L2_cache_stats_breakdown[LOCAL_ACC_W][SECTOR_MISS] = 0
	L2_cache_stats_breakdown[LOCAL_ACC_W][MSHR_HIT] = 0
	L2_cache_stats_breakdown[L1_WRBK_ACC][HIT] = 0
	L2_cache_stats_breakdown[L1_WRBK_ACC][HIT_RESERVED] = 0
	L2_cache_stats_breakdown[L1_WRBK_ACC][MISS] = 0
	L2_cache_stats_breakdown[L1_WRBK_ACC][RESERVATION_FAIL] = 0
	L2_cache_stats_breakdown[L1_WRBK_ACC][SECTOR_MISS] = 0
	L2_cache_stats_breakdown[L1_WRBK_ACC][MSHR_HIT] = 0
	L2_cache_stats_breakdown[L2_WRBK_ACC][HIT] = 0
	L2_cache_stats_breakdown[L2_WRBK_ACC][HIT_RESERVED] = 0
	L2_cache_stats_breakdown[L2_WRBK_ACC][MISS] = 0
	L2_cache_stats_breakdown[L2_WRBK_ACC][RESERVATION_FAIL] = 0
	L2_cache_stats_breakdown[L2_WRBK_ACC][SECTOR_MISS] = 0
	L2_cache_stats_breakdown[L2_WRBK_ACC][MSHR_HIT] = 0
	L2_cache_stats_breakdown[INST_ACC_R][HIT] = 0
	L2_cache_stats_breakdown[INST_ACC_R][HIT_RESERVED] = 0
	L2_cache_stats_breakdown[INST_ACC_R][MISS] = 0
	L2_cache_stats_breakdown[INST_ACC_R][RESERVATION_FAIL] = 0
	L2_cache_stats_breakdown[INST_ACC_R][SECTOR_MISS] = 0
	L2_cache_stats_breakdown[INST_ACC_R][MSHR_HIT] = 0
	L2_cache_stats_breakdown[L1_WR_ALLOC_R][HIT] = 0
	L2_cache_stats_breakdown[L1_WR_ALLOC_R][HIT_RESERVED] = 0
	L2_cache_stats_breakdown[L1_WR_ALLOC_R][MISS] = 0
	L2_cache_stats_breakdown[L1_WR_ALLOC_R][RESERVATION_FAIL] = 0
	L2_cache_stats_breakdown[L1_WR_ALLOC_R][SECTOR_MISS] = 0
	L2_cache_stats_breakdown[L1_WR_ALLOC_R][MSHR_HIT] = 0
	L2_cache_stats_breakdown[L2_WR_ALLOC_R][HIT] = 0
	L2_cache_stats_breakdown[L2_WR_ALLOC_R][HIT_RESERVED] = 0
	L2_cache_stats_breakdown[L2_WR_ALLOC_R][MISS] = 0
	L2_cache_stats_breakdown[L2_WR_ALLOC_R][RESERVATION_FAIL] = 0
	L2_cache_stats_breakdown[L2_WR_ALLOC_R][SECTOR_MISS] = 0
	L2_cache_stats_breakdown[L2_WR_ALLOC_R][MSHR_HIT] = 0
	L2_cache_stats_breakdown[GLOBAL_ACC_R][TOTAL_ACCESS] = 815799
	L2_cache_stats_breakdown[GLOBAL_ACC_W][TOTAL_ACCESS] = 175104
L2_total_cache_reservation_fail_breakdown:
L2_cache_data_port_util = 0.024
L2_cache_fill_port_util = 0.018

icnt_total_pkts_mem_to_simt=874154
icnt_total_pkts_simt_to_mem=874154
LD_mem_lat_dist  0 0 0 0 0 0 0 0 0 0 0 0 0 0 0 0 0 0 0 0 0 0 0 0 0 0 0
ST_mem_lat_dist  0 0 0 0 0 0 0 0 0 0 0 0 0 0 0 0 0 0 0 0 0 0 0 0 0 0 0
----------------------------Interconnect-DETAILS--------------------------------
Class 0:
Packet latency average = 5.82519
	minimum = 5
	maximum = 158
Network latency average = 5.80941
	minimum = 5
	maximum = 104
Slowest packet = 850
Flit latency average = 5.80941
	minimum = 5
	maximum = 104
Slowest flit = 1989
Fragmentation average = 0
	minimum = 0
	maximum = 0
Injected packet rate average = 0.0561363
	minimum = 0 (at node 30)
	maximum = 0.243976 (at node 0)
Accepted packet rate average = 0.0561363
	minimum = 0 (at node 30)
	maximum = 0.243976 (at node 0)
Injected flit rate average = 0.0561363
	minimum = 0 (at node 30)
	maximum = 0.243976 (at node 0)
Accepted flit rate average= 0.0561363
	minimum = 0 (at node 30)
	maximum = 0.243976 (at node 0)
Injected packet length average = 1
Accepted packet length average = 1
Total in-flight flits = 0 (0 measured)
====== Overall Traffic Statistics ======
====== Traffic class 0 ======
Packet latency average = 5.82519 (1 samples)
	minimum = 5 (1 samples)
	maximum = 158 (1 samples)
Network latency average = 5.80941 (1 samples)
	minimum = 5 (1 samples)
	maximum = 104 (1 samples)
Flit latency average = 5.80941 (1 samples)
	minimum = 5 (1 samples)
	maximum = 104 (1 samples)
Fragmentation average = 0 (1 samples)
	minimum = 0 (1 samples)
	maximum = 0 (1 samples)
Injected packet rate average = 0.0561363 (1 samples)
	minimum = 0 (1 samples)
	maximum = 0.243976 (1 samples)
Accepted packet rate average = 0.0561363 (1 samples)
	minimum = 0 (1 samples)
	maximum = 0.243976 (1 samples)
Injected flit rate average = 0.0561363 (1 samples)
	minimum = 0 (1 samples)
	maximum = 0.243976 (1 samples)
Accepted flit rate average = 0.0561363 (1 samples)
	minimum = 0 (1 samples)
	maximum = 0.243976 (1 samples)
Injected packet size average = 1 (1 samples)
Accepted packet size average = 1 (1 samples)
Hops average = 1 (1 samples)
----------------------------END-of-Interconnect-DETAILS-------------------------


gpgpu_simulation_time = 0 days, 0 hrs, 3 min, 1 sec (181 sec)
gpgpu_simulation_rate = 2216382 (inst/sec)
gpgpu_simulation_rate = 3308 (cycle/sec)
gpgpu_silicon_slowdown = 428355x
GPGPU-Sim: *** simulation thread exiting ***
GPGPU-Sim: *** exit detected ***
