Skipping setup_environment - already set
doing: export -n PTX_SIM_USE_PTX_FILE
doing: export LD_LIBRARY_PATH=/home/htran197/accel-sim-framework/gpu-simulator/../accelwattch_runs/pascal_ptx_sim/gpgpu-sim-builds/gpgpu-sim_git-commit-971dd69e8a6c355c8cc4c8bd997db51376ff520a_modified_1.0:/home/htran197/accel-sim-framework/gpu-simulator/gpgpu-sim/lib/gcc-8.4.0/cuda-11000/debug:/home/htran197/accel-sim-framework/gpu-simulator/gpgpu-sim/lib/gcc-8.4.0/cuda-11000/release::/usr/lib/x86_64-linux-gnu/slurm-wlm/:/usr/lib/x86_64-linux-gnu/slurm-wlm/
doing: cd /home/htran197/accel-sim-framework/gpu-simulator/../accelwattch_runs/pascal_ptx_sim/b+tree-rodinia-3.1/file___data_mil_txt_command___data_command_txt/TITANX-Accelwattch_PTX_SIM
doing: export OPENCL_CURRENT_TEST_PATH=/home/htran197/accel-sim-framework/gpu-simulator/../accelwattch_runs/pascal_ptx_sim/b+tree-rodinia-3.1/file___data_mil_txt_command___data_command_txt/TITANX-Accelwattch_PTX_SIM
doing: export OPENCL_REMOTE_GPU_HOST=REPLACE_REMOTE_HOST
doing 
doing: export PATH=/home/htran197/accel-sim-framework/gpu-simulator/gpgpu-sim/bin:/usr/local/cuda-11.0//bin:/home/htran197/anaconda3/envs/python2/bin:/home/htran197/anaconda3/bin:/usr/local/cuda-11.0/bin:/usr/local/cuda/bin:/home/htran197/.vscode-server/bin/1ad8d514439d5077d2b0b7ee64d2ce82a9308e5a/bin/remote-cli:/home/htran197/anaconda3/condabin:/home/htran197/accel-sim-framework/gpu-simulator/gpgpu-sim/bin:/usr/local/cuda-11.0/bin:/home/htran197/anaconda3/bin:/usr/local/cuda-11.0/bin:/usr/local/cuda/bin:/usr/local/sbin:/usr/local/bin:/usr/sbin:/usr/bin:/sbin:/bin:/usr/games:/usr/local/games:/snap/bin:/usr/local/bin
doing export CUDA_LAUNCH_BLOCKING=1
doing:  /home/htran197/accel-sim-framework/gpu-simulator/../util/accelwattch/accelwattch_benchmarks/validation/b+tree-rodinia-3.1 file ./data/mil.txt command ./data/command.txt


        *** GPGPU-Sim Simulator Version 4.2.0  [build gpgpu-sim_git-commit-971dd69e8a6c355c8cc4c8bd997db51376ff520a_modified_1.0] ***


GPGPU-Sim PTX: simulation mode 0 (can change with PTX_SIM_MODE_FUNC environment variable:
               1=functional simulation only, 0=detailed performance simulator)
GPGPU-Sim: Configuration options:

-save_embedded_ptx                      0 # saves ptx files embedded in binary as <n>.ptx
-keep                                   0 # keep intermediate files created by GPGPU-Sim when interfacing with external programs
-gpgpu_ptx_save_converted_ptxplus                    0 # Saved converted ptxplus to a file
-gpgpu_occupancy_sm_number                   62 # The SM number to pass to ptxas when getting register usage for computing GPU occupancy. This parameter is required in the config.
-ptx_opcode_latency_int      4,13,4,5,145,32 # Opcode latencies for integers <ADD,MAX,MUL,MAD,DIV,SHFL>Default 1,1,19,25,145,32
-ptx_opcode_latency_fp          4,13,4,4,39 # Opcode latencies for single precision floating points <ADD,MAX,MUL,MAD,DIV>Default 1,1,1,1,30
-ptx_opcode_latency_dp         8,19,8,8,330 # Opcode latencies for double precision floating points <ADD,MAX,MUL,MAD,DIV>Default 8,8,8,8,335
-ptx_opcode_latency_sfu                   20 # Opcode latencies for SFU instructionsDefault 8
-ptx_opcode_latency_tesnor                   64 # Opcode latencies for Tensor instructionsDefault 64
-ptx_opcode_initiation_int          1,1,1,1,4,4 # Opcode initiation intervals for integers <ADD,MAX,MUL,MAD,DIV,SHFL>Default 1,1,4,4,32,4
-ptx_opcode_initiation_fp            1,2,1,1,4 # Opcode initiation intervals for single precision floating points <ADD,MAX,MUL,MAD,DIV>Default 1,1,1,1,5
-ptx_opcode_initiation_dp          8,8,8,8,130 # Opcode initiation intervals for double precision floating points <ADD,MAX,MUL,MAD,DIV>Default 8,8,8,8,130
-ptx_opcode_initiation_sfu                    4 # Opcode initiation intervals for sfu instructionsDefault 8
-ptx_opcode_initiation_tensor                   64 # Opcode initiation intervals for tensor instructionsDefault 64
-cdp_latency         7200,8000,100,12000,1600 # CDP API latency <cudaStreamCreateWithFlags, cudaGetParameterBufferV2_init_perWarp, cudaGetParameterBufferV2_perKernel, cudaLaunchDeviceV2_init_perWarp, cudaLaunchDevicV2_perKernel>Default 7200,8000,100,12000,1600
-network_mode                           1 # Interconnection network mode
-inter_config_file   config_pascal_islip.icnt # Interconnection network config file
-icnt_in_buffer_limit                   64 # in_buffer_limit
-icnt_out_buffer_limit                   64 # out_buffer_limit
-icnt_subnets                           2 # subnets
-icnt_arbiter_algo                      1 # arbiter_algo
-icnt_verbose                           0 # inct_verbose
-icnt_grant_cycles                      1 # grant_cycles
-gpgpu_ptx_use_cuobjdump                    1 # Use cuobjdump to extract ptx and sass from binaries
-gpgpu_experimental_lib_support                    0 # Try to extract code from cuda libraries [Broken because of unknown cudaGetExportTable]
-checkpoint_option                      0 #  checkpointing flag (0 = no checkpoint)
-checkpoint_kernel                      1 #  checkpointing during execution of which kernel (1- 1st kernel)
-checkpoint_CTA                         0 #  checkpointing after # of CTA (< less than total CTA)
-resume_option                          0 #  resume flag (0 = no resume)
-resume_kernel                          0 #  Resume from which kernel (1= 1st kernel)
-resume_CTA                             0 #  resume from which CTA 
-checkpoint_CTA_t                       0 #  resume from which CTA 
-checkpoint_insn_Y                      0 #  resume from which CTA 
-gpgpu_ptx_convert_to_ptxplus                    0 # Convert SASS (native ISA) to ptxplus and run ptxplus
-gpgpu_ptx_force_max_capability                   61 # Force maximum compute capability
-gpgpu_ptx_inst_debug_to_file                    0 # Dump executed instructions' debug information to file
-gpgpu_ptx_inst_debug_file       inst_debug.txt # Executed instructions' debug output file
-gpgpu_ptx_inst_debug_thread_uid                    1 # Thread UID for executed instructions' debug output
-gpgpu_simd_model                       1 # 1 = post-dominator
-gpgpu_shader_core_pipeline              2048:32 # shader core pipeline config, i.e., {<nthread>:<warpsize>}
-gpgpu_tex_cache:l1  N:16:128:24,L:R:m:N:L,T:128:4,128:2 # per-shader L1 texture cache  (READ-ONLY) config  {<nsets>:<bsize>:<assoc>,<rep>:<wr>:<alloc>:<wr_alloc>,<mshr>:<N>:<merge>,<mq>:<rf>}
-gpgpu_const_cache:l1 N:128:64:2,L:R:f:N:L,S:2:64,4 # per-shader L1 constant memory cache  (READ-ONLY) config  {<nsets>:<bsize>:<assoc>,<rep>:<wr>:<alloc>:<wr_alloc>,<mshr>:<N>:<merge>,<mq>} 
-gpgpu_cache:il1     N:8:128:4,L:R:f:N:L,S:2:48,4 # shader L1 instruction cache config  {<nsets>:<bsize>:<assoc>,<rep>:<wr>:<alloc>:<wr_alloc>,<mshr>:<N>:<merge>,<mq>} 
-gpgpu_cache:dl1     S:4:128:96,L:L:s:N:L,A:256:8,16:0,32 # per-shader L1 data cache config  {<nsets>:<bsize>:<assoc>,<rep>:<wr>:<alloc>:<wr_alloc>,<mshr>:<N>:<merge>,<mq> | none}
-gpgpu_l1_banks                         2 # The number of L1 cache banks
-gpgpu_l1_banks_byte_interleaving                   32 # l1 banks byte interleaving granularity
-gpgpu_l1_banks_hashing_function                    0 # l1 banks hashing function
-gpgpu_l1_latency                      82 # L1 Hit Latency
-gpgpu_smem_latency                    24 # smem Latency
-gpgpu_cache:dl1PrefL1 S:4:128:96,L:L:s:N:L,A:256:8,16:0,32 # per-shader L1 data cache config  {<nsets>:<bsize>:<assoc>,<rep>:<wr>:<alloc>:<wr_alloc>,<mshr>:<N>:<merge>,<mq> | none}
-gpgpu_cache:dl1PrefShared S:4:128:96,L:L:s:N:L,A:256:8,16:0,32 # per-shader L1 data cache config  {<nsets>:<bsize>:<assoc>,<rep>:<wr>:<alloc>:<wr_alloc>,<mshr>:<N>:<merge>,<mq> | none}
-gpgpu_gmem_skip_L1D                    1 # global memory access skip L1D cache (implements -Xptxas -dlcm=cg, default=no skip)
-gpgpu_perfect_mem                      0 # enable perfect memory mode (no cache miss)
-n_regfile_gating_group                    4 # group of lanes that should be read/written together)
-gpgpu_clock_gated_reg_file                    0 # enable clock gated reg file for power calculations
-gpgpu_clock_gated_lanes                    1 # enable clock gated lanes for power calculations
-gpgpu_shader_registers                65536 # Number of registers per shader core. Limits number of concurrent CTAs. (default 8192)
-gpgpu_registers_per_block                 8192 # Maximum number of registers per CTA. (default 8192)
-gpgpu_ignore_resources_limitation                    1 # gpgpu_ignore_resources_limitation (default 0)
-gpgpu_shader_cta                      32 # Maximum number of concurrent CTAs in shader (default 8)
-gpgpu_num_cta_barriers                   16 # Maximum number of named barriers per CTA (default 16)
-gpgpu_n_clusters                       6 # number of processing clusters
-gpgpu_n_cores_per_cluster                    1 # number of simd cores per cluster
-gpgpu_n_cluster_ejection_buffer_size                   32 # number of packets in ejection buffer
-gpgpu_n_ldst_response_buffer_size                    2 # number of response packets in ld/st unit ejection buffer
-gpgpu_shmem_per_block                49152 # Size of shared memory per thread block or CTA (default 48kB)
-gpgpu_shmem_size                   98304 # Size of shared memory per shader core (default 16kB)
-gpgpu_adaptive_cache_config                    0 # adaptive_cache_config
-gpgpu_shmem_sizeDefault                98304 # Size of shared memory per shader core (default 16kB)
-gpgpu_shmem_size_PrefL1                98304 # Size of shared memory per shader core (default 16kB)
-gpgpu_shmem_size_PrefShared                98304 # Size of shared memory per shader core (default 16kB)
-gpgpu_shmem_num_banks                   32 # Number of banks in the shared memory in each shader core (default 16)
-gpgpu_shmem_limited_broadcast                    0 # Limit shared memory to do one broadcast per cycle (default on)
-gpgpu_shmem_warp_parts                    1 # Number of portions a warp is divided into for shared memory bank conflict check 
-gpgpu_mem_unit_ports                    1 # The number of memory transactions allowed per core cycle
-gpgpu_shmem_warp_parts                    1 # Number of portions a warp is divided into for shared memory bank conflict check 
-gpgpu_warpdistro_shader                   -1 # Specify which shader core to collect the warp size distribution from
-gpgpu_warp_issue_shader                    0 # Specify which shader core to collect the warp issue distribution from
-gpgpu_local_mem_map                    1 # Mapping from local memory space address to simulated GPU physical address space (default = enabled)
-gpgpu_num_reg_banks                   16 # Number of register banks (default = 8)
-gpgpu_reg_bank_use_warp_id                    0 # Use warp ID in mapping registers to banks (default = off)
-gpgpu_sub_core_model                    1 # Sub Core Volta/Pascal model (default = off)
-gpgpu_enable_specialized_operand_collector                    0 # enable_specialized_operand_collector
-gpgpu_operand_collector_num_units_sp                    4 # number of collector units (default = 4)
-gpgpu_operand_collector_num_units_dp                    0 # number of collector units (default = 0)
-gpgpu_operand_collector_num_units_sfu                    4 # number of collector units (default = 4)
-gpgpu_operand_collector_num_units_int                    0 # number of collector units (default = 0)
-gpgpu_operand_collector_num_units_tensor_core                    4 # number of collector units (default = 4)
-gpgpu_operand_collector_num_units_mem                    2 # number of collector units (default = 2)
-gpgpu_operand_collector_num_units_gen                    8 # number of collector units (default = 0)
-gpgpu_operand_collector_num_in_ports_sp                    1 # number of collector unit in ports (default = 1)
-gpgpu_operand_collector_num_in_ports_dp                    0 # number of collector unit in ports (default = 0)
-gpgpu_operand_collector_num_in_ports_sfu                    1 # number of collector unit in ports (default = 1)
-gpgpu_operand_collector_num_in_ports_int                    0 # number of collector unit in ports (default = 0)
-gpgpu_operand_collector_num_in_ports_tensor_core                    1 # number of collector unit in ports (default = 1)
-gpgpu_operand_collector_num_in_ports_mem                    1 # number of collector unit in ports (default = 1)
-gpgpu_operand_collector_num_in_ports_gen                    8 # number of collector unit in ports (default = 0)
-gpgpu_operand_collector_num_out_ports_sp                    1 # number of collector unit in ports (default = 1)
-gpgpu_operand_collector_num_out_ports_dp                    0 # number of collector unit in ports (default = 0)
-gpgpu_operand_collector_num_out_ports_sfu                    1 # number of collector unit in ports (default = 1)
-gpgpu_operand_collector_num_out_ports_int                    0 # number of collector unit in ports (default = 0)
-gpgpu_operand_collector_num_out_ports_tensor_core                    1 # number of collector unit in ports (default = 1)
-gpgpu_operand_collector_num_out_ports_mem                    1 # number of collector unit in ports (default = 1)
-gpgpu_operand_collector_num_out_ports_gen                    8 # number of collector unit in ports (default = 0)
-gpgpu_coalesce_arch                   61 # Coalescing arch (GT200 = 13, Fermi = 20)
-gpgpu_num_sched_per_core                    4 # Number of warp schedulers per core
-gpgpu_max_insn_issue_per_warp                    2 # Max number of instructions that can be issued per warp in one cycle by scheduler (either 1 or 2)
-gpgpu_dual_issue_diff_exec_units                    1 # should dual issue use two different execution unit resources (Default = 1)
-gpgpu_simt_core_sim_order                    1 # Select the simulation order of cores in a cluster (0=Fix, 1=Round-Robin)
-gpgpu_pipeline_widths 4,0,0,4,4,4,0,0,4,4,8 # Pipeline widths ID_OC_SP,ID_OC_DP,ID_OC_INT,ID_OC_SFU,ID_OC_MEM,OC_EX_SP,OC_EX_DP,OC_EX_INT,OC_EX_SFU,OC_EX_MEM,EX_WB,ID_OC_TENSOR_CORE,OC_EX_TENSOR_CORE
-gpgpu_tensor_core_avail                    0 # Tensor Core Available (default=0)
-gpgpu_num_sp_units                     4 # Number of SP units (default=1)
-gpgpu_num_dp_units                     0 # Number of DP units (default=0)
-gpgpu_num_int_units                    0 # Number of INT units (default=0)
-gpgpu_num_sfu_units                    4 # Number of SF units (default=1)
-gpgpu_num_tensor_core_units                    0 # Number of tensor_core units (default=1)
-gpgpu_num_mem_units                    1 # Number if ldst units (default=1) WARNING: not hooked up to anything
-gpgpu_scheduler                      gto # Scheduler configuration: < lrr | gto | two_level_active > If two_level_active:<num_active_warps>:<inner_prioritization>:<outer_prioritization>For complete list of prioritization values see shader.h enum scheduler_prioritization_typeDefault: gto
-gpgpu_concurrent_kernel_sm                    0 # Support concurrent kernels on a SM (default = disabled)
-gpgpu_perfect_inst_const_cache                    1 # perfect inst and const cache mode, so all inst and const hits in the cache(default = disabled)
-gpgpu_inst_fetch_throughput                    8 # the number of fetched intruction per warp each cycle
-gpgpu_reg_file_port_throughput                    2 # the number ports of the register file
-specialized_unit_1         0,4,4,4,4,BRA # specialized unit config {<enabled>,<num_units>:<latency>:<initiation>,<ID_OC_SPEC>:<OC_EX_SPEC>,<NAME>}
-specialized_unit_2         0,4,4,4,4,BRA # specialized unit config {<enabled>,<num_units>:<latency>:<initiation>,<ID_OC_SPEC>:<OC_EX_SPEC>,<NAME>}
-specialized_unit_3         0,4,4,4,4,BRA # specialized unit config {<enabled>,<num_units>:<latency>:<initiation>,<ID_OC_SPEC>:<OC_EX_SPEC>,<NAME>}
-specialized_unit_4         0,4,4,4,4,BRA # specialized unit config {<enabled>,<num_units>:<latency>:<initiation>,<ID_OC_SPEC>:<OC_EX_SPEC>,<NAME>}
-specialized_unit_5         0,4,4,4,4,BRA # specialized unit config {<enabled>,<num_units>:<latency>:<initiation>,<ID_OC_SPEC>:<OC_EX_SPEC>,<NAME>}
-specialized_unit_6         0,4,4,4,4,BRA # specialized unit config {<enabled>,<num_units>:<latency>:<initiation>,<ID_OC_SPEC>:<OC_EX_SPEC>,<NAME>}
-specialized_unit_7         0,4,4,4,4,BRA # specialized unit config {<enabled>,<num_units>:<latency>:<initiation>,<ID_OC_SPEC>:<OC_EX_SPEC>,<NAME>}
-specialized_unit_8         0,4,4,4,4,BRA # specialized unit config {<enabled>,<num_units>:<latency>:<initiation>,<ID_OC_SPEC>:<OC_EX_SPEC>,<NAME>}
-gpgpu_perf_sim_memcpy                    1 # Fill the L2 cache on memcpy
-gpgpu_simple_dram_model                    0 # simple_dram_model with fixed latency and BW
-gpgpu_dram_scheduler                    1 # 0 = fifo, 1 = FR-FCFS (defaul)
-gpgpu_dram_partition_queues          32:32:32:32 # i2$:$2d:d2$:$2i
-l2_ideal                               0 # Use a ideal L2 cache that always hit
-gpgpu_cache:dl2     S:64:128:16,L:B:m:L:P,A:256:64,16:0,32 # unified banked L2 data cache config  {<nsets>:<bsize>:<assoc>,<rep>:<wr>:<alloc>:<wr_alloc>,<mshr>:<N>:<merge>,<mq>}
-gpgpu_cache:dl2_texture_only                    0 # L2 cache used for texture only
-gpgpu_n_mem                           12 # number of memory modules (e.g. memory controllers) in gpu
-gpgpu_n_sub_partition_per_mchannel                    2 # number of memory subpartition in each memory module
-gpgpu_n_mem_per_ctrlr                    1 # number of memory chips per memory controller
-gpgpu_memlatency_stat                   14 # track and display latency statistics 0x2 enables MC, 0x4 enables queue logs
-gpgpu_frfcfs_dram_sched_queue_size                   64 # 0 = unlimited (default); # entries per chip
-gpgpu_dram_return_queue_size                   64 # 0 = unlimited (default); # entries per chip
-gpgpu_dram_buswidth                    4 # default = 4 bytes (8 bytes per cycle at DDR)
-gpgpu_dram_burst_length                    8 # Burst length of each DRAM request (default = 4 data bus cycle)
-dram_data_command_freq_ratio                    4 # Frequency ratio between DRAM data bus and command bus (default = 2 times, i.e. DDR)
-gpgpu_dram_timing_opt nbk=16:CCD=2:RRD=8:RCD=16:RAS=37:RP=16:RC=52: CL=16:WL=6:CDLR=7:WR=16:nbkgrp=4:CCDL=4:RTPL=3 # DRAM timing parameters = {nbk:tCCD:tRRD:tRCD:tRAS:tRP:tRC:CL:WL:tCDLR:tWR:nbkgrp:tCCDL:tRTPL}
-gpgpu_l2_rop_latency                  120 # ROP queue latency (default 85)
-dram_latency                         100 # DRAM latency (default 30)
-dram_dual_bus_interface                    0 # dual_bus_interface (default = 0) 
-dram_bnk_indexing_policy                    0 # dram_bnk_indexing_policy (0 = normal indexing, 1 = Xoring with the higher bits) (Default = 0)
-dram_bnkgrp_indexing_policy                    1 # dram_bnkgrp_indexing_policy (0 = take higher bits, 1 = take lower bits) (Default = 0)
-dram_seperate_write_queue_enable                    0 # Seperate_Write_Queue_Enable
-dram_write_queue_size             32:28:16 # Write_Queue_Size
-dram_elimnate_rw_turnaround                    0 # elimnate_rw_turnaround i.e set tWTR and tRTW = 0
-icnt_flit_size                        40 # icnt_flit_size
-gpgpu_mem_addr_mapping dramid@8;00000000.00000000.00000000.00000000.0000RRRR.RRRRRRRR.RBBBCCCC.BCCSSSSS # mapping memory address to dram model {dramid@<start bit>;<memory address map>}
-gpgpu_mem_addr_test                    0 # run sweep test to check address mapping for aliased address
-gpgpu_mem_address_mask                    1 # 0 = old addressing mask, 1 = new addressing mask, 2 = new add. mask + flipped bank sel and chip sel bits
-gpgpu_memory_partition_indexing                    4 # 0 = no indexing, 1 = bitwise xoring, 2 = IPoly, 3 = custom indexing
-accelwattch_xml_file accelwattch_ptx_sim.xml # AccelWattch XML file
-power_simulation_enabled                    1 # Turn on power simulator (1=On, 0=Off)
-power_per_cycle_dump                    0 # Dump detailed power output each cycle
-hw_perf_file_name            hw_perf.csv # Hardware Performance Statistics file
-hw_perf_bench_name                       # Kernel Name in Hardware Performance Statistics file
-power_simulation_mode                    0 # Switch performance counter input for power simulation (0=Sim, 1=HW, 2=HW-Sim Hybrid)
-dvfs_enabled                           0 # Turn on DVFS for power model
-aggregate_power_stats                    0 # Accumulate power across all kernels
-accelwattch_hybrid_perfsim_L1_RH                    0 # Get L1 Read Hits for Accelwattch-Hybrid from Accel-Sim
-accelwattch_hybrid_perfsim_L1_RM                    0 # Get L1 Read Misses for Accelwattch-Hybrid from Accel-Sim
-accelwattch_hybrid_perfsim_L1_WH                    0 # Get L1 Write Hits for Accelwattch-Hybrid from Accel-Sim
-accelwattch_hybrid_perfsim_L1_WM                    0 # Get L1 Write Misses for Accelwattch-Hybrid from Accel-Sim
-accelwattch_hybrid_perfsim_L2_RH                    0 # Get L2 Read Hits for Accelwattch-Hybrid from Accel-Sim
-accelwattch_hybrid_perfsim_L2_RM                    0 # Get L2 Read Misses for Accelwattch-Hybrid from Accel-Sim
-accelwattch_hybrid_perfsim_L2_WH                    0 # Get L2 Write Hits for Accelwattch-Hybrid from Accel-Sim
-accelwattch_hybrid_perfsim_L2_WM                    0 # Get L2 Write Misses for Accelwattch-Hybrid from Accel-Sim
-accelwattch_hybrid_perfsim_CC_ACC                    0 # Get Constant Cache Acesses for Accelwattch-Hybrid from Accel-Sim
-accelwattch_hybrid_perfsim_SHARED_ACC                    0 # Get Shared Memory Acesses for Accelwattch-Hybrid from Accel-Sim
-accelwattch_hybrid_perfsim_DRAM_RD                    0 # Get DRAM Reads for Accelwattch-Hybrid from Accel-Sim
-accelwattch_hybrid_perfsim_DRAM_WR                    0 # Get DRAM Writes for Accelwattch-Hybrid from Accel-Sim
-accelwattch_hybrid_perfsim_NOC                    0 # Get Interconnect Acesses for Accelwattch-Hybrid from Accel-Sim
-accelwattch_hybrid_perfsim_PIPE_DUTY                    0 # Get Pipeline Duty Cycle Acesses for Accelwattch-Hybrid from Accel-Sim
-accelwattch_hybrid_perfsim_NUM_SM_IDLE                    0 # Get Number of Idle SMs for Accelwattch-Hybrid from Accel-Sim
-accelwattch_hybrid_perfsim_CYCLES                    0 # Get Executed Cycles for Accelwattch-Hybrid from Accel-Sim
-accelwattch_hybrid_perfsim_VOLTAGE                    0 # Get Chip Voltage for Accelwattch-Hybrid from Accel-Sim
-power_trace_enabled                    0 # produce a file for the power trace (1=On, 0=Off)
-power_trace_zlevel                     6 # Compression level of the power trace output log (0=no comp, 9=highest)
-steady_power_levels_enabled                    0 # produce a file for the steady power levels (1=On, 0=Off)
-steady_state_definition                  8:4 # allowed deviation:number of samples
-gpgpu_max_cycle                        0 # terminates gpu simulation early (0 = no limit)
-gpgpu_max_insn                         0 # terminates gpu simulation early (0 = no limit)
-gpgpu_max_cta                          0 # terminates gpu simulation early (0 = no limit)
-gpgpu_max_completed_cta                    0 # terminates gpu simulation early (0 = no limit)
-gpgpu_runtime_stat                   500 # display runtime statistics such as dram utilization {<freq>:<flag>}
-liveness_message_freq                    1 # Minimum number of seconds between simulation liveness messages (0 = always print)
-gpgpu_compute_capability_major                    6 # Major compute capability version number
-gpgpu_compute_capability_minor                    1 # Minor compute capability version number
-gpgpu_flush_l1_cache                    1 # Flush L1 cache at the end of each kernel call
-gpgpu_flush_l2_cache                    0 # Flush L2 cache at the end of each kernel call
-gpgpu_deadlock_detect                    1 # Stop the simulation at deadlock (1=on (default), 0=off)
-gpgpu_ptx_instruction_classification                    0 # if enabled will classify ptx instruction types per kernel (Max 255 kernels now)
-gpgpu_ptx_sim_mode                     0 # Select between Performance (default) or Functional simulation (1)
-gpgpu_clock_domains 1417.0:1417.0:1417.0:2500.0 # Clock Domain Frequencies in MhZ {<Core Clock>:<ICNT Clock>:<L2 Clock>:<DRAM Clock>}
-gpgpu_max_concurrent_kernel                    8 # maximum kernels that can run concurrently on GPU
-gpgpu_cflog_interval                    0 # Interval between each snapshot in control flow logger
-visualizer_enabled                     0 # Turn on visualizer output (1=On, 0=Off)
-visualizer_outputfile                 NULL # Specifies the output log file for visualizer
-visualizer_zlevel                      6 # Compression level of the visualizer output log (0=no comp, 9=highest)
-gpgpu_stack_size_limit                 1024 # GPU thread stack size
-gpgpu_heap_size_limit              8388608 # GPU malloc heap size 
-gpgpu_runtime_sync_depth_limit                    2 # GPU device runtime synchronize depth
-gpgpu_runtime_pending_launch_count_limit                 2048 # GPU device runtime pending launch count
-trace_enabled                          0 # Turn on traces
-trace_components                    none # comma seperated list of traces to enable. Complete list found in trace_streams.tup. Default none
-trace_sampling_core                    0 # The core which is printed using CORE_DPRINTF. Default 0
-trace_sampling_memory_partition                   -1 # The memory partition which is printed using MEMPART_DPRINTF. Default -1 (i.e. all)
-enable_ptx_file_line_stats                    1 # Turn on PTX source line statistic profiling. (1 = On)
-ptx_line_stats_filename gpgpu_inst_stats.txt # Output file for PTX source line statistics.
-gpgpu_kernel_launch_latency                 5000 # Kernel launch latency in cycles. Default: 0
-gpgpu_cdp_enabled                      0 # Turn on CDP
-gpgpu_TB_launch_latency                    0 # thread block launch latency in cycles. Default: 0
DRAM Timing Options:
nbk                                    16 # number of banks
CCD                                     2 # column to column delay
RRD                                     8 # minimal delay between activation of rows in different banks
RCD                                    16 # row to column delay
RAS                                    37 # time needed to activate row
RP                                     16 # time needed to precharge (deactivate) row
RC                                     52 # row cycle time
CDLR                                    7 # switching from write to read (changes tWTR)
WR                                     16 # last data-in to row precharge
CL                                     16 # CAS latency
WL                                      6 # Write latency
nbkgrp                                  4 # number of bank groups
CCDL                                    4 # column to column delay between accesses to different bank groups
RTPL                                    3 # read to precharge delay between accesses to different bank groups
Total number of memory sub partition = 24
addr_dec_mask[CHIP]  = 0000000000000000 	high:64 low:0
addr_dec_mask[BK]    = 0000000000007080 	high:15 low:7
addr_dec_mask[ROW]   = 000000000fff8000 	high:28 low:15
addr_dec_mask[COL]   = 0000000000000f7f 	high:12 low:0
addr_dec_mask[BURST] = 000000000000001f 	high:5 low:0
sub_partition_id_mask = 0000000000000080
GPGPU-Sim uArch: clock freqs: 1417000000.000000:1417000000.000000:1417000000.000000:2500000000.000000
GPGPU-Sim uArch: clock periods: 0.00000000070571630205:0.00000000070571630205:0.00000000070571630205:0.00000000040000000000
*** Initializing Memory Statistics ***
GPGPU-Sim uArch: interconnect node map (shaderID+MemID to icntID)
GPGPU-Sim uArch: Memory nodes ID start from index: 6
GPGPU-Sim uArch:    0   1   2   3   4   5   6
GPGPU-Sim uArch:    7   8   9  10  11  12  13
GPGPU-Sim uArch:   14  15  16  17  18  19  20
GPGPU-Sim uArch:   21  22  23  24  25  26  27
GPGPU-Sim uArch:   28  29  30  31  32  33  34
GPGPU-Sim uArch:   35  36  37  38  39  40  41
GPGPU-Sim uArch:   42  43  44  45  46  47  48
GPGPU-Sim uArch:   49  50  51
GPGPU-Sim uArch: interconnect node reverse map (icntID to shaderID+MemID)
GPGPU-Sim uArch: Memory nodes start from ID: 6
GPGPU-Sim uArch:    0   1   2   3   4   5   6
GPGPU-Sim uArch:    7   8   9  10  11  12  13
GPGPU-Sim uArch:   14  15  16  17  18  19  20
GPGPU-Sim uArch:   21  22  23  24  25  26  27
GPGPU-Sim uArch:   28  29  30  31  32  33  34
GPGPU-Sim uArch:   35  36  37  38  39  40  41
GPGPU-Sim uArch:   42  43  44  45  46  47  48
GPGPU-Sim uArch:   49  50  51
6455ae8cb4afd098cea5c47da96c59aa  /home/htran197/accel-sim-framework/util/accelwattch/accelwattch_benchmarks/validation/b+tree-rodinia-3.1
Extracting PTX file and ptxas options    1: b+tree-rodinia-3.1.sm_60.ptx -arch=sm_60
Extracting PTX file and ptxas options    2: b+tree-rodinia-3.2.sm_62.ptx -arch=sm_62
Extracting PTX file and ptxas options    3: b+tree-rodinia-3.3.sm_70.ptx -arch=sm_70
Extracting PTX file and ptxas options    4: b+tree-rodinia-3.4.sm_75.ptx -arch=sm_75
Extracting PTX file and ptxas options    5: b+tree-rodinia-3.5.sm_60.ptx -arch=sm_60
Extracting PTX file and ptxas options    6: b+tree-rodinia-3.6.sm_62.ptx -arch=sm_62
Extracting PTX file and ptxas options    7: b+tree-rodinia-3.7.sm_70.ptx -arch=sm_70
Extracting PTX file and ptxas options    8: b+tree-rodinia-3.8.sm_75.ptx -arch=sm_75
Extracting PTX file and ptxas options    9: b+tree-rodinia-3.9.sm_60.ptx -arch=sm_60
Extracting PTX file and ptxas options   10: b+tree-rodinia-3.10.sm_62.ptx -arch=sm_62
Extracting PTX file and ptxas options   11: b+tree-rodinia-3.11.sm_70.ptx -arch=sm_70
Extracting PTX file and ptxas options   12: b+tree-rodinia-3.12.sm_75.ptx -arch=sm_75
GPGPU-Sim uArch: performance model initialization complete.
self exe links to: /home/htran197/accel-sim-framework/util/accelwattch/accelwattch_benchmarks/validation/b+tree-rodinia-3.1
self exe links to: /home/htran197/accel-sim-framework/util/accelwattch/accelwattch_benchmarks/validation/b+tree-rodinia-3.1
11.0
GPGPU-Sim PTX: __cudaRegisterFatBinary, fat_cubin_handle = 1, filename=default
self exe links to: /home/htran197/accel-sim-framework/util/accelwattch/accelwattch_benchmarks/validation/b+tree-rodinia-3.1
Running md5sum using "md5sum /home/htran197/accel-sim-framework/util/accelwattch/accelwattch_benchmarks/validation/b+tree-rodinia-3.1 "
self exe links to: /home/htran197/accel-sim-framework/util/accelwattch/accelwattch_benchmarks/validation/b+tree-rodinia-3.1
Extracting specific PTX file named b+tree-rodinia-3.1.sm_60.ptx 
Extracting specific PTX file named b+tree-rodinia-3.2.sm_62.ptx 
Extracting specific PTX file named b+tree-rodinia-3.3.sm_70.ptx 
Extracting specific PTX file named b+tree-rodinia-3.4.sm_75.ptx 
Extracting specific PTX file named b+tree-rodinia-3.5.sm_60.ptx 
Extracting specific PTX file named b+tree-rodinia-3.6.sm_62.ptx 
Extracting specific PTX file named b+tree-rodinia-3.7.sm_70.ptx 
Extracting specific PTX file named b+tree-rodinia-3.8.sm_75.ptx 
Extracting specific PTX file named b+tree-rodinia-3.9.sm_60.ptx 
Extracting specific PTX file named b+tree-rodinia-3.10.sm_62.ptx 
Extracting specific PTX file named b+tree-rodinia-3.11.sm_70.ptx 
Extracting specific PTX file named b+tree-rodinia-3.12.sm_75.ptx 
GPGPU-Sim PTX: __cudaRegisterFunction findK : hostFun 0x0x55c5dc72b180, fat_cubin_handle = 1
GPGPU-Sim PTX: Parsing b+tree-rodinia-3.1.sm_60.ptx
GPGPU-Sim PTX: instruction assembly for function 'findK'...   done.
GPGPU-Sim PTX: finished parsing EMBEDDED .ptx file b+tree-rodinia-3.1.sm_60.ptx
GPGPU-Sim PTX: Parsing b+tree-rodinia-3.5.sm_60.ptx
GPGPU-Sim PTX: instruction assembly for function 'findRangeK'...   done.
GPGPU-Sim PTX: finished parsing EMBEDDED .ptx file b+tree-rodinia-3.5.sm_60.ptx
GPGPU-Sim PTX: Parsing b+tree-rodinia-3.9.sm_60.ptx
GPGPU-Sim PTX: finished parsing EMBEDDED .ptx file b+tree-rodinia-3.9.sm_60.ptx
GPGPU-Sim PTX: Parsing b+tree-rodinia-3.10.sm_62.ptx
GPGPU-Sim PTX: finished parsing EMBEDDED .ptx file b+tree-rodinia-3.10.sm_62.ptx
GPGPU-Sim PTX: Parsing b+tree-rodinia-3.2.sm_62.ptx
GPGPU-Sim PTX: Warning %p0 was declared previous at b+tree-rodinia-3.1.sm_60.ptx:26 skipping new declaration
GPGPU-Sim PTX: Warning %p1 was declared previous at b+tree-rodinia-3.1.sm_60.ptx:26 skipping new declaration
GPGPU-Sim PTX: Warning %p2 was declared previous at b+tree-rodinia-3.1.sm_60.ptx:26 skipping new declaration
GPGPU-Sim PTX: Warning %p3 was declared previous at b+tree-rodinia-3.1.sm_60.ptx:26 skipping new declaration
GPGPU-Sim PTX: Warning %p4 was declared previous at b+tree-rodinia-3.1.sm_60.ptx:26 skipping new declaration
GPGPU-Sim PTX: Warning %p5 was declared previous at b+tree-rodinia-3.1.sm_60.ptx:26 skipping new declaration
GPGPU-Sim PTX: Warning %p6 was declared previous at b+tree-rodinia-3.1.sm_60.ptx:26 skipping new declaration
GPGPU-Sim PTX: Warning %p7 was declared previous at b+tree-rodinia-3.1.sm_60.ptx:26 skipping new declaration
GPGPU-Sim PTX: Warning %p8 was declared previous at b+tree-rodinia-3.1.sm_60.ptx:26 skipping new declaration
GPGPU-Sim PTX: Warning %p9 was declared previous at b+tree-rodinia-3.1.sm_60.ptx:26 skipping new declaration
GPGPU-Sim PTX: Warning %p10 was declared previous at b+tree-rodinia-3.1.sm_60.ptx:26 skipping new declaration
GPGPU-Sim PTX: Warning %p11 was declared previous at b+tree-rodinia-3.1.sm_60.ptx:26 skipping new declaration
GPGPU-Sim PTX: Warning %p12 was declared previous at b+tree-rodinia-3.1.sm_60.ptx:26 skipping new declaration
GPGPU-Sim PTX: Warning %p13 was declared previous at b+tree-rodinia-3.1.sm_60.ptx:26 skipping new declaration
GPGPU-Sim PTX: Warning %p14 was declared previous at b+tree-rodinia-3.1.sm_60.ptx:26 skipping new declaration
GPGPU-Sim PTX: Warning %p15 was declared previous at b+tree-rodinia-3.1.sm_60.ptx:26 skipping new declaration
GPGPU-Sim PTX: Warning %p16 was declared previous at b+tree-rodinia-3.1.sm_60.ptx:26 skipping new declaration
GPGPU-Sim PTX: Warning %p17 was declared previous at b+tree-rodinia-3.1.sm_60.ptx:26 skipping new declaration
GPGPU-Sim PTX: Warning %p18 was declared previous at b+tree-rodinia-3.1.sm_60.ptx:26 skipping new declaration
GPGPU-Sim PTX: Warning %p19 was declared previous at b+tree-rodinia-3.1.sm_60.ptx:26 skipping new declaration
GPGPU-Sim PTX: Warning %p20 was declared previous at b+tree-rodinia-3.1.sm_60.ptx:26 skipping new declaration
GPGPU-Sim PTX: Warning %p21 was declared previous at b+tree-rodinia-3.1.sm_60.ptx:26 skipping new declaration
GPGPU-Sim PTX: Warning %p22 was declared previous at b+tree-rodinia-3.1.sm_60.ptx:26 skipping new declaration
GPGPU-Sim PTX: Warning %p23 was declared previous at b+tree-rodinia-3.1.sm_60.ptx:26 skipping new declaration
GPGPU-Sim PTX: Warning %p24 was declared previous at b+tree-rodinia-3.1.sm_60.ptx:26 skipping new declaration
GPGPU-Sim PTX: Warning %p25 was declared previous at b+tree-rodinia-3.1.sm_60.ptx:26 skipping new declaration
GPGPU-Sim PTX: Warning %p26 was declared previous at b+tree-rodinia-3.1.sm_60.ptx:26 skipping new declaration
GPGPU-Sim PTX: Warning %p27 was declared previous at b+tree-rodinia-3.1.sm_60.ptx:26 skipping new declaration
GPGPU-Sim PTX: Warning %p28 was declared previous at b+tree-rodinia-3.1.sm_60.ptx:26 skipping new declaration
GPGPU-Sim PTX: Warning %p29 was declared previous at b+tree-rodinia-3.1.sm_60.ptx:26 skipping new declaration
GPGPU-Sim PTX: Warning %p30 was declared previous at b+tree-rodinia-3.1.sm_60.ptx:26 skipping new declaration
GPGPU-Sim PTX: Warning %p31 was declared previous at b+tree-rodinia-3.1.sm_60.ptx:26 skipping new declaration
GPGPU-Sim PTX: Warning %p32 was declared previous at b+tree-rodinia-3.1.sm_60.ptx:26 skipping new declaration
GPGPU-Sim PTX: Warning %p33 was declared previous at b+tree-rodinia-3.1.sm_60.ptx:26 skipping new declaration
GPGPU-Sim PTX: Warning %p34 was declared previous at b+tree-rodinia-3.1.sm_60.ptx:26 skipping new declaration
GPGPU-Sim PTX: Warning %p35 was declared previous at b+tree-rodinia-3.1.sm_60.ptx:26 skipping new declaration
GPGPU-Sim PTX: Warning %r0 was declared previous at b+tree-rodinia-3.1.sm_60.ptx:27 skipping new declaration
GPGPU-Sim PTX: Warning %r1 was declared previous at b+tree-rodinia-3.1.sm_60.ptx:27 skipping new declaration
GPGPU-Sim PTX: Warning %r2 was declared previous at b+tree-rodinia-3.1.sm_60.ptx:27 skipping new declaration
GPGPU-Sim PTX: Warning %r3 was declared previous at b+tree-rodinia-3.1.sm_60.ptx:27 skipping new declaration
GPGPU-Sim PTX: Warning %r4 was declared previous at b+tree-rodinia-3.1.sm_60.ptx:27 skipping new declaration
GPGPU-Sim PTX: Warning %r5 was declared previous at b+tree-rodinia-3.1.sm_60.ptx:27 skipping new declaration
GPGPU-Sim PTX: Warning %r6 was declared previous at b+tree-rodinia-3.1.sm_60.ptx:27 skipping new declaration
GPGPU-Sim PTX: Warning %r7 was declared previous at b+tree-rodinia-3.1.sm_60.ptx:27 skipping new declaration
GPGPU-Sim PTX: Warning %r8 was declared previous at b+tree-rodinia-3.1.sm_60.ptx:27 skipping new declaration
GPGPU-Sim PTX: Warning %r9 was declared previous at b+tree-rodinia-3.1.sm_60.ptx:27 skipping new declaration
GPGPU-Sim PTX: Warning %r10 was declared previous at b+tree-rodinia-3.1.sm_60.ptx:27 skipping new declaration
GPGPU-Sim PTX: Warning %r11 was declared previous at b+tree-rodinia-3.1.sm_60.ptx:27 skipping new declaration
GPGPU-Sim PTX: Warning %r12 was declared previous at b+tree-rodinia-3.1.sm_60.ptx:27 skipping new declaration
GPGPU-Sim PTX: Warning %r13 was declared previous at b+tree-rodinia-3.1.sm_60.ptx:27 skipping new declaration
GPGPU-Sim PTX: Warning %r14 was declared previous at b+tree-rodinia-3.1.sm_60.ptx:27 skipping new declaration
GPGPU-Sim PTX: Warning %r15 was declared previous at b+tree-rodinia-3.1.sm_60.ptx:27 skipping new declaration
GPGPU-Sim PTX: Warning %r16 was declared previous at b+tree-rodinia-3.1.sm_60.ptx:27 skipping new declaration
GPGPU-Sim PTX: Warning %r17 was declared previous at b+tree-rodinia-3.1.sm_60.ptx:27 skipping new declaration
GPGPU-Sim PTX: Warning %r18 was declared previous at b+tree-rodinia-3.1.sm_60.ptx:27 skipping new declaration
GPGPU-Sim PTX: Warning %r19 was declared previous at b+tree-rodinia-3.1.sm_60.ptx:27 skipping new declaration
GPGPU-Sim PTX: Warning %r20 was declared previous at b+tree-rodinia-3.1.sm_60.ptx:27 skipping new declaration
GPGPU-Sim PTX: Warning %r21 was declared previous at b+tree-rodinia-3.1.sm_60.ptx:27 skipping new declaration
GPGPU-Sim PTX: Warning %r22 was declared previous at b+tree-rodinia-3.1.sm_60.ptx:27 skipping new declaration
GPGPU-Sim PTX: Warning %r23 was declared previous at b+tree-rodinia-3.1.sm_60.ptx:27 skipping new declaration
GPGPU-Sim PTX: Warning %r24 was declared previous at b+tree-rodinia-3.1.sm_60.ptx:27 skipping new declaration
GPGPU-Sim PTX: Warning %r25 was declared previous at b+tree-rodinia-3.1.sm_60.ptx:27 skipping new declaration
GPGPU-Sim PTX: Warning %r26 was declared previous at b+tree-rodinia-3.1.sm_60.ptx:27 skipping new declaration
GPGPU-Sim PTX: Warning %r27 was declared previous at b+tree-rodinia-3.1.sm_60.ptx:27 skipping new declaration
GPGPU-Sim PTX: Warning %r28 was declared previous at b+tree-rodinia-3.1.sm_60.ptx:27 skipping new declaration
GPGPU-Sim PTX: Warning %r29 was declared previous at b+tree-rodinia-3.1.sm_60.ptx:27 skipping new declaration
GPGPU-Sim PTX: Warning %r30 was declared previous at b+tree-rodinia-3.1.sm_60.ptx:27 skipping new declaration
GPGPU-Sim PTX: Warning %r31 was declared previous at b+tree-rodinia-3.1.sm_60.ptx:27 skipping new declaration
GPGPU-Sim PTX: Warning %r32 was declared previous at b+tree-rodinia-3.1.sm_60.ptx:27 skipping new declaration
GPGPU-Sim PTX: Warning %r33 was declared previous at b+tree-rodinia-3.1.sm_60.ptx:27 skipping new declaration
GPGPU-Sim PTX: Warning %r34 was declared previous at b+tree-rodinia-3.1.sm_60.ptx:27 skipping new declaration
GPGPU-Sim PTX: Warning %r35 was declared previous at b+tree-rodinia-3.1.sm_60.ptx:27 skipping new declaration
GPGPU-Sim PTX: Warning %r36 was declared previous at b+tree-rodinia-3.1.sm_60.ptx:27 skipping new declaration
GPGPU-Sim PTX: Warning %r37 was declared previous at b+tree-rodinia-3.1.sm_60.ptx:27 skipping new declaration
GPGPU-Sim PTX: Warning %r38 was declared previous at b+tree-rodinia-3.1.sm_60.ptx:27 skipping new declaration
GPGPU-Sim PTX: Warning %r39 was declared previous at b+tree-rodinia-3.1.sm_60.ptx:27 skipping new declaration
GPGPU-Sim PTX: Warning %r40 was declared previous at b+tree-rodinia-3.1.sm_60.ptx:27 skipping new declaration
GPGPU-Sim PTX: Warning %r41 was declared previous at b+tree-rodinia-3.1.sm_60.ptx:27 skipping new declaration
GPGPU-Sim PTX: Warning %r42 was declared previous at b+tree-rodinia-3.1.sm_60.ptx:27 skipping new declaration
GPGPU-Sim PTX: Warning %r43 was declared previous at b+tree-rodinia-3.1.sm_60.ptx:27 skipping new declaration
GPGPU-Sim PTX: Warning %r44 was declared previous at b+tree-rodinia-3.1.sm_60.ptx:27 skipping new declaration
GPGPU-Sim PTX: Warning %r45 was declared previous at b+tree-rodinia-3.1.sm_60.ptx:27 skipping new declaration
GPGPU-Sim PTX: Warning %r46 was declared previous at b+tree-rodinia-3.1.sm_60.ptx:27 skipping new declaration
GPGPU-Sim PTX: Warning %r47 was declared previous at b+tree-rodinia-3.1.sm_60.ptx:27 skipping new declaration
GPGPU-Sim PTX: Warning %r48 was declared previous at b+tree-rodinia-3.1.sm_60.ptx:27 skipping new declaration
GPGPU-Sim PTX: Warning %r49 was declared previous at b+tree-rodinia-3.1.sm_60.ptx:27 skipping new declaration
GPGPU-Sim PTX: Warning %r50 was declared previous at b+tree-rodinia-3.1.sm_60.ptx:27 skipping new declaration
GPGPU-Sim PTX: Warning %r51 was declared previous at b+tree-rodinia-3.1.sm_60.ptx:27 skipping new declaration
GPGPU-Sim PTX: Warning %r52 was declared previous at b+tree-rodinia-3.1.sm_60.ptx:27 skipping new declaration
GPGPU-Sim PTX: Warning %r53 was declared previous at b+tree-rodinia-3.1.sm_60.ptx:27 skipping new declaration
GPGPU-Sim PTX: Warning %r54 was declared previous at b+tree-rodinia-3.1.sm_60.ptx:27 skipping new declaration
GPGPU-Sim PTX: Warning %r55 was declared previous at b+tree-rodinia-3.1.sm_60.ptx:27 skipping new declaration
GPGPU-Sim PTX: Warning %r56 was declared previous at b+tree-rodinia-3.1.sm_60.ptx:27 skipping new declaration
GPGPU-Sim PTX: Warning %r57 was declared previous at b+tree-rodinia-3.1.sm_60.ptx:27 skipping new declaration
GPGPU-Sim PTX: Warning %r58 was declared previous at b+tree-rodinia-3.1.sm_60.ptx:27 skipping new declaration
GPGPU-Sim PTX: Warning %r59 was declared previous at b+tree-rodinia-3.1.sm_60.ptx:27 skipping new declaration
GPGPU-Sim PTX: Warning %r60 was declared previous at b+tree-rodinia-3.1.sm_60.ptx:27 skipping new declaration
GPGPU-Sim PTX: Warning %r61 was declared previous at b+tree-rodinia-3.1.sm_60.ptx:27 skipping new declaration
GPGPU-Sim PTX: Warning %r62 was declared previous at b+tree-rodinia-3.1.sm_60.ptx:27 skipping new declaration
GPGPU-Sim PTX: Warning %r63 was declared previous at b+tree-rodinia-3.1.sm_60.ptx:27 skipping new declaration
GPGPU-Sim PTX: Warning %r64 was declared previous at b+tree-rodinia-3.1.sm_60.ptx:27 skipping new declaration
GPGPU-Sim PTX: Warning %r65 was declared previous at b+tree-rodinia-3.1.sm_60.ptx:27 skipping new declaration
GPGPU-Sim PTX: Warning %r66 was declared previous at b+tree-rodinia-3.1.sm_60.ptx:27 skipping new declaration
GPGPU-Sim PTX: Warning %r67 was declared previous at b+tree-rodinia-3.1.sm_60.ptx:27 skipping new declaration
GPGPU-Sim PTX: Warning %r68 was declared previous at b+tree-rodinia-3.1.sm_60.ptx:27 skipping new declaration
GPGPU-Sim PTX: Warning %r69 was declared previous at b+tree-rodinia-3.1.sm_60.ptx:27 skipping new declaration
GPGPU-Sim PTX: Warning %r70 was declared previous at b+tree-rodinia-3.1.sm_60.ptx:27 skipping new declaration
GPGPU-Sim PTX: Warning %r71 was declared previous at b+tree-rodinia-3.1.sm_60.ptx:27 skipping new declaration
GPGPU-Sim PTX: Warning %r72 was declared previous at b+tree-rodinia-3.1.sm_60.ptx:27 skipping new declaration
GPGPU-Sim PTX: Warning %r73 was declared previous at b+tree-rodinia-3.1.sm_60.ptx:27 skipping new declaration
GPGPU-Sim PTX: Warning %r74 was declared previous at b+tree-rodinia-3.1.sm_60.ptx:27 skipping new declaration
GPGPU-Sim PTX: Warning %r75 was declared previous at b+tree-rodinia-3.1.sm_60.ptx:27 skipping new declaration
GPGPU-Sim PTX: Warning %r76 was declared previous at b+tree-rodinia-3.1.sm_60.ptx:27 skipping new declaration
GPGPU-Sim PTX: Warning %r77 was declared previous at b+tree-rodinia-3.1.sm_60.ptx:27 skipping new declaration
GPGPU-Sim PTX: Warning %r78 was declared previous at b+tree-rodinia-3.1.sm_60.ptx:27 skipping new declaration
GPGPU-Sim PTX: Warning %r79 was declared previous at b+tree-rodinia-3.1.sm_60.ptx:27 skipping new declaration
GPGPU-Sim PTX: Warning %r80 was declared previous at b+tree-rodinia-3.1.sm_60.ptx:27 skipping new declaration
GPGPU-Sim PTX: Warning %r81 was declared previous at b+tree-rodinia-3.1.sm_60.ptx:27 skipping new declaration
GPGPU-Sim PTX: Warning %r82 was declared previous at b+tree-rodinia-3.1.sm_60.ptx:27 skipping new declaration
GPGPU-Sim PTX: Warning %r83 was declared previous at b+tree-rodinia-3.1.sm_60.ptx:27 skipping new declaration
GPGPU-Sim PTX: Warning %r84 was declared previous at b+tree-rodinia-3.1.sm_60.ptx:27 skipping new declaration
GPGPU-Sim PTX: Warning %r85 was declared previous at b+tree-rodinia-3.1.sm_60.ptx:27 skipping new declaration
GPGPU-Sim PTX: Warning %r86 was declared previous at b+tree-rodinia-3.1.sm_60.ptx:27 skipping new declaration
GPGPU-Sim PTX: Warning %r87 was declared previous at b+tree-rodinia-3.1.sm_60.ptx:27 skipping new declaration
GPGPU-Sim PTX: Warning %r88 was declared previous at b+tree-rodinia-3.1.sm_60.ptx:27 skipping new declaration
GPGPU-Sim PTX: Warning %r89 was declared previous at b+tree-rodinia-3.1.sm_60.ptx:27 skipping new declaration
GPGPU-Sim PTX: Warning %r90 was declared previous at b+tree-rodinia-3.1.sm_60.ptx:27 skipping new declaration
GPGPU-Sim PTX: Warning %r91 was declared previous at b+tree-rodinia-3.1.sm_60.ptx:27 skipping new declaration
GPGPU-Sim PTX: Warning %r92 was declared previous at b+tree-rodinia-3.1.sm_60.ptx:27 skipping new declaration
GPGPU-Sim PTX: Warning %r93 was declared previous at b+tree-rodinia-3.1.sm_60.ptx:27 skipping new declaration
GPGPU-Sim PTX: Warning %r94 was declared previous at b+tree-rodinia-3.1.sm_60.ptx:27 skipping new declaration
GPGPU-Sim PTX: Warning %rd0 was declared previous at b+tree-rodinia-3.1.sm_60.ptx:28 skipping new declaration
GPGPU-Sim PTX: Warning %rd1 was declared previous at b+tree-rodinia-3.1.sm_60.ptx:28 skipping new declaration
GPGPU-Sim PTX: Warning %rd2 was declared previous at b+tree-rodinia-3.1.sm_60.ptx:28 skipping new declaration
GPGPU-Sim PTX: Warning %rd3 was declared previous at b+tree-rodinia-3.1.sm_60.ptx:28 skipping new declaration
GPGPU-Sim PTX: Warning %rd4 was declared previous at b+tree-rodinia-3.1.sm_60.ptx:28 skipping new declaration
GPGPU-Sim PTX: Warning %rd5 was declared previous at b+tree-rodinia-3.1.sm_60.ptx:28 skipping new declaration
GPGPU-Sim PTX: Warning %rd6 was declared previous at b+tree-rodinia-3.1.sm_60.ptx:28 skipping new declaration
GPGPU-Sim PTX: Warning %rd7 was declared previous at b+tree-rodinia-3.1.sm_60.ptx:28 skipping new declaration
GPGPU-Sim PTX: Warning %rd8 was declared previous at b+tree-rodinia-3.1.sm_60.ptx:28 skipping new declaration
GPGPU-Sim PTX: Warning %rd9 was declared previous at b+tree-rodinia-3.1.sm_60.ptx:28 skipping new declaration
GPGPU-Sim PTX: Warning %rd10 was declared previous at b+tree-rodinia-3.1.sm_60.ptx:28 skipping new declaration
GPGPU-Sim PTX: Warning %rd11 was declared previous at b+tree-rodinia-3.1.sm_60.ptx:28 skipping new declaration
GPGPU-Sim PTX: Warning %rd12 was declared previous at b+tree-rodinia-3.1.sm_60.ptx:28 skipping new declaration
GPGPU-Sim PTX: Warning %rd13 was declared previous at b+tree-rodinia-3.1.sm_60.ptx:28 skipping new declaration
GPGPU-Sim PTX: Warning %rd14 was declared previous at b+tree-rodinia-3.1.sm_60.ptx:28 skipping new declaration
GPGPU-Sim PTX: Warning %rd15 was declared previous at b+tree-rodinia-3.1.sm_60.ptx:28 skipping new declaration
GPGPU-Sim PTX: Warning %rd16 was declared previous at b+tree-rodinia-3.1.sm_60.ptx:28 skipping new declaration
GPGPU-Sim PTX: Warning %rd17 was declared previous at b+tree-rodinia-3.1.sm_60.ptx:28 skipping new declaration
GPGPU-Sim PTX: Warning %rd18 was declared previous at b+tree-rodinia-3.1.sm_60.ptx:28 skipping new declaration
GPGPU-Sim PTX: Warning %rd19 was declared previous at b+tree-rodinia-3.1.sm_60.ptx:28 skipping new declaration
GPGPU-Sim PTX: Warning %rd20 was declared previous at b+tree-rodinia-3.1.sm_60.ptx:28 skipping new declaration
GPGPU-Sim PTX: Warning %rd21 was declared previous at b+tree-rodinia-3.1.sm_60.ptx:28 skipping new declaration
GPGPU-Sim PTX: Warning %rd22 was declared previous at b+tree-rodinia-3.1.sm_60.ptx:28 skipping new declaration
GPGPU-Sim PTX: Warning %rd23 was declared previous at b+tree-rodinia-3.1.sm_60.ptx:28 skipping new declaration
GPGPU-Sim PTX: Warning %rd24 was declared previous at b+tree-rodinia-3.1.sm_60.ptx:28 skipping new declaration
GPGPU-Sim PTX: Warning %rd25 was declared previous at b+tree-rodinia-3.1.sm_60.ptx:28 skipping new declaration
GPGPU-Sim PTX: Warning %rd26 was declared previous at b+tree-rodinia-3.1.sm_60.ptx:28 skipping new declaration
GPGPU-Sim PTX: Warning %rd27 was declared previous at b+tree-rodinia-3.1.sm_60.ptx:28 skipping new declaration
GPGPU-Sim PTX: Warning %rd28 was declared previous at b+tree-rodinia-3.1.sm_60.ptx:28 skipping new declaration
GPGPU-Sim PTX: Warning %rd29 was declared previous at b+tree-rodinia-3.1.sm_60.ptx:28 skipping new declaration
GPGPU-Sim PTX: Warning %rd30 was declared previous at b+tree-rodinia-3.1.sm_60.ptx:28 skipping new declaration
GPGPU-Sim PTX: Warning %rd31 was declared previous at b+tree-rodinia-3.1.sm_60.ptx:28 skipping new declaration
GPGPU-Sim PTX: Warning %rd32 was declared previous at b+tree-rodinia-3.1.sm_60.ptx:28 skipping new declaration
GPGPU-Sim PTX: Warning %rd33 was declared previous at b+tree-rodinia-3.1.sm_60.ptx:28 skipping new declaration
GPGPU-Sim PTX: Warning %rd34 was declared previous at b+tree-rodinia-3.1.sm_60.ptx:28 skipping new declaration
GPGPU-Sim PTX: Warning %rd35 was declared previous at b+tree-rodinia-3.1.sm_60.ptx:28 skipping new declaration
GPGPU-Sim PTX: Warning %rd36 was declared previous at b+tree-rodinia-3.1.sm_60.ptx:28 skipping new declaration
GPGPU-Sim PTX: Warning %rd37 was declared previous at b+tree-rodinia-3.1.sm_60.ptx:28 skipping new declaration
GPGPU-Sim PTX: Warning %rd38 was declared previous at b+tree-rodinia-3.1.sm_60.ptx:28 skipping new declaration
GPGPU-Sim PTX: Warning %rd39 was declared previous at b+tree-rodinia-3.1.sm_60.ptx:28 skipping new declaration
GPGPU-Sim PTX: Warning %rd40 was declared previous at b+tree-rodinia-3.1.sm_60.ptx:28 skipping new declaration
GPGPU-Sim PTX: Warning %rd41 was declared previous at b+tree-rodinia-3.1.sm_60.ptx:28 skipping new declaration
GPGPU-Sim PTX: Warning %rd42 was declared previous at b+tree-rodinia-3.1.sm_60.ptx:28 skipping new declaration
GPGPU-Sim PTX: Warning %rd43 was declared previous at b+tree-rodinia-3.1.sm_60.ptx:28 skipping new declaration
GPGPU-Sim PTX: Warning %rd44 was declared previous at b+tree-rodinia-3.1.sm_60.ptx:28 skipping new declaration
GPGPU-Sim PTX: Warning %rd45 was declared previous at b+tree-rodinia-3.1.sm_60.ptx:28 skipping new declaration
GPGPU-Sim PTX: Warning %rd46 was declared previous at b+tree-rodinia-3.1.sm_60.ptx:28 skipping new declaration
GPGPU-Sim PTX: Warning %rd47 was declared previous at b+tree-rodinia-3.1.sm_60.ptx:28 skipping new declaration
GPGPU-Sim PTX: Warning %rd48 was declared previous at b+tree-rodinia-3.1.sm_60.ptx:28 skipping new declaration
GPGPU-Sim PTX: Warning %rd49 was declared previous at b+tree-rodinia-3.1.sm_60.ptx:28 skipping new declaration
GPGPU-Sim PTX: Warning %rd50 was declared previous at b+tree-rodinia-3.1.sm_60.ptx:28 skipping new declaration
GPGPU-Sim PTX: Warning %rd51 was declared previous at b+tree-rodinia-3.1.sm_60.ptx:28 skipping new declaration
GPGPU-Sim PTX: Warning %rd52 was declared previous at b+tree-rodinia-3.1.sm_60.ptx:28 skipping new declaration
GPGPU-Sim PTX: Warning %rd53 was declared previous at b+tree-rodinia-3.1.sm_60.ptx:28 skipping new declaration
GPGPU-Sim PTX: Warning %rd54 was declared previous at b+tree-rodinia-3.1.sm_60.ptx:28 skipping new declaration
GPGPU-Sim PTX: Warning %rd55 was declared previous at b+tree-rodinia-3.1.sm_60.ptx:28 skipping new declaration
GPGPU-Sim PTX: Warning %rd56 was declared previous at b+tree-rodinia-3.1.sm_60.ptx:28 skipping new declaration
GPGPU-Sim PTX: Warning %rd57 was declared previous at b+tree-rodinia-3.1.sm_60.ptx:28 skipping new declaration
GPGPU-Sim PTX: Warning %rd58 was declared previous at b+tree-rodinia-3.1.sm_60.ptx:28 skipping new declaration
GPGPU-Sim PTX: Warning %rd59 was declared previous at b+tree-rodinia-3.1.sm_60.ptx:28 skipping new declaration
GPGPU-Sim PTX: Warning %rd60 was declared previous at b+tree-rodinia-3.1.sm_60.ptx:28 skipping new declaration
GPGPU-Sim PTX: Warning %rd61 was declared previous at b+tree-rodinia-3.1.sm_60.ptx:28 skipping new declaration
GPGPU-Sim PTX: Warning %rd62 was declared previous at b+tree-rodinia-3.1.sm_60.ptx:28 skipping new declaration
GPGPU-Sim PTX: Warning %rd63 was declared previous at b+tree-rodinia-3.1.sm_60.ptx:28 skipping new declaration
GPGPU-Sim PTX: Warning %rd64 was declared previous at b+tree-rodinia-3.1.sm_60.ptx:28 skipping new declaration
GPGPU-Sim PTX: Warning %rd65 was declared previous at b+tree-rodinia-3.1.sm_60.ptx:28 skipping new declaration
GPGPU-Sim PTX: Warning %rd66 was declared previous at b+tree-rodinia-3.1.sm_60.ptx:28 skipping new declaration
GPGPU-Sim PTX: Warning %rd67 was declared previous at b+tree-rodinia-3.1.sm_60.ptx:28 skipping new declaration
GPGPU-Sim PTX: Warning %rd68 was declared previous at b+tree-rodinia-3.1.sm_60.ptx:28 skipping new declaration
GPGPU-Sim PTX: Warning %rd69 was declared previous at b+tree-rodinia-3.1.sm_60.ptx:28 skipping new declaration
GPGPU-Sim PTX: Warning %rd70 was declared previous at b+tree-rodinia-3.1.sm_60.ptx:28 skipping new declaration
GPGPU-Sim PTX: Warning %rd71 was declared previous at b+tree-rodinia-3.1.sm_60.ptx:28 skipping new declaration
GPGPU-Sim PTX: Warning %rd72 was declared previous at b+tree-rodinia-3.1.sm_60.ptx:28 skipping new declaration
GPGPU-Sim PTX: Warning %rd73 was declared previous at b+tree-rodinia-3.1.sm_60.ptx:28 skipping new declaration
GPGPU-Sim PTX: Warning %rd74 was declared previous at b+tree-rodinia-3.1.sm_60.ptx:28 skipping new declaration
GPGPU-Sim PTX: Warning %rd75 was declared previous at b+tree-rodinia-3.1.sm_60.ptx:28 skipping new declaration
GPGPU-Sim PTX: Warning %rd76 was declared previous at b+tree-rodinia-3.1.sm_60.ptx:28 skipping new declaration
GPGPU-Sim PTX: Warning %rd77 was declared previous at b+tree-rodinia-3.1.sm_60.ptx:28 skipping new declaration
GPGPU-Sim PTX: Warning %rd78 was declared previous at b+tree-rodinia-3.1.sm_60.ptx:28 skipping new declaration
GPGPU-Sim PTX: Warning %rd79 was declared previous at b+tree-rodinia-3.1.sm_60.ptx:28 skipping new declaration
GPGPU-Sim PTX: Warning %rd80 was declared previous at b+tree-rodinia-3.1.sm_60.ptx:28 skipping new declaration
GPGPU-Sim PTX: Warning %rd81 was declared previous at b+tree-rodinia-3.1.sm_60.ptx:28 skipping new declaration
GPGPU-Sim PTX: Warning %rd82 was declared previous at b+tree-rodinia-3.1.sm_60.ptx:28 skipping new declaration
GPGPU-Sim PTX: Warning %rd83 was declared previous at b+tree-rodinia-3.1.sm_60.ptx:28 skipping new declaration
GPGPU-Sim PTX: Warning %rd84 was declared previous at b+tree-rodinia-3.1.sm_60.ptx:28 skipping new declaration
GPGPU-Sim PTX: Warning %rd85 was declared previous at b+tree-rodinia-3.1.sm_60.ptx:28 skipping new declaration
GPGPU-Sim PTX: Warning %rd86 was declared previous at b+tree-rodinia-3.1.sm_60.ptx:28 skipping new declaration
GPGPU-Sim PTX: Warning %rd87 was declared previous at b+tree-rodinia-3.1.sm_60.ptx:28 skipping new declaration
GPGPU-Sim PTX: Warning %rd88 was declared previous at b+tree-rodinia-3.1.sm_60.ptx:28 skipping new declaration
GPGPU-Sim PTX: Warning %rd89 was declared previous at b+tree-rodinia-3.1.sm_60.ptx:28 skipping new declaration
GPGPU-Sim PTX: Warning %rd90 was declared previous at b+tree-rodinia-3.1.sm_60.ptx:28 skipping new declaration
GPGPU-Sim PTX: Warning %rd91 was declared previous at b+tree-rodinia-3.1.sm_60.ptx:28 skipping new declaration
GPGPU-Sim PTX: Warning %rd92 was declared previous at b+tree-rodinia-3.1.sm_60.ptx:28 skipping new declaration
GPGPU-Sim PTX: Warning %rd93 was declared previous at b+tree-rodinia-3.1.sm_60.ptx:28 skipping new declaration
GPGPU-Sim PTX: Warning %rd94 was declared previous at b+tree-rodinia-3.1.sm_60.ptx:28 skipping new declaration
GPGPU-Sim PTX: Warning %rd95 was declared previous at b+tree-rodinia-3.1.sm_60.ptx:28 skipping new declaration
GPGPU-Sim PTX: Warning %rd96 was declared previous at b+tree-rodinia-3.1.sm_60.ptx:28 skipping new declaration
GPGPU-Sim PTX: Warning %rd97 was declared previous at b+tree-rodinia-3.1.sm_60.ptx:28 skipping new declaration
GPGPU-Sim PTX: Warning %rd98 was declared previous at b+tree-rodinia-3.1.sm_60.ptx:28 skipping new declaration
GPGPU-Sim PTX: Warning %rd99 was declared previous at b+tree-rodinia-3.1.sm_60.ptx:28 skipping new declaration
GPGPU-Sim PTX: Warning %rd100 was declared previous at b+tree-rodinia-3.1.sm_60.ptx:28 skipping new declaration
GPGPU-Sim PTX: Warning %rd101 was declared previous at b+tree-rodinia-3.1.sm_60.ptx:28 skipping new declaration
GPGPU-Sim PTX: Warning %rd102 was declared previous at b+tree-rodinia-3.1.sm_60.ptx:28 skipping new declaration
GPGPU-Sim PTX: Warning %rd103 was declared previous at b+tree-rodinia-3.1.sm_60.ptx:28 skipping new declaration
GPGPU-Sim PTX: Warning %rd104 was declared previous at b+tree-rodinia-3.1.sm_60.ptx:28 skipping new declaration
GPGPU-Sim PTX: Warning %rd105 was declared previous at b+tree-rodinia-3.1.sm_60.ptx:28 skipping new declaration
GPGPU-Sim PTX: Warning %rd106 was declared previous at b+tree-rodinia-3.1.sm_60.ptx:28 skipping new declaration
GPGPU-Sim PTX: Warning %rd107 was declared previous at b+tree-rodinia-3.1.sm_60.ptx:28 skipping new declaration
GPGPU-Sim PTX: Warning %rd108 was declared previous at b+tree-rodinia-3.1.sm_60.ptx:28 skipping new declaration
GPGPU-Sim PTX: Warning %rd109 was declared previous at b+tree-rodinia-3.1.sm_60.ptx:28 skipping new declaration
GPGPU-Sim PTX: Warning %rd110 was declared previous at b+tree-rodinia-3.1.sm_60.ptx:28 skipping new declaration
GPGPU-Sim PTX: Warning %rd111 was declared previous at b+tree-rodinia-3.1.sm_60.ptx:28 skipping new declaration
GPGPU-Sim PTX: Warning %rd112 was declared previous at b+tree-rodinia-3.1.sm_60.ptx:28 skipping new declaration
GPGPU-Sim PTX: Warning %rd113 was declared previous at b+tree-rodinia-3.1.sm_60.ptx:28 skipping new declaration
GPGPU-Sim PTX: Warning %rd114 was declared previous at b+tree-rodinia-3.1.sm_60.ptx:28 skipping new declaration
GPGPU-Sim PTX: Warning %rd115 was declared previous at b+tree-rodinia-3.1.sm_60.ptx:28 skipping new declaration
GPGPU-Sim PTX: Warning %rd116 was declared previous at b+tree-rodinia-3.1.sm_60.ptx:28 skipping new declaration
GPGPU-Sim PTX: Warning %rd117 was declared previous at b+tree-rodinia-3.1.sm_60.ptx:28 skipping new declaration
GPGPU-Sim PTX: Warning %rd118 was declared previous at b+tree-rodinia-3.1.sm_60.ptx:28 skipping new declaration
GPGPU-Sim PTX: Warning %rd119 was declared previous at b+tree-rodinia-3.1.sm_60.ptx:28 skipping new declaration
GPGPU-Sim PTX: Warning %rd120 was declared previous at b+tree-rodinia-3.1.sm_60.ptx:28 skipping new declaration
GPGPU-Sim PTX: Warning %rd121 was declared previous at b+tree-rodinia-3.1.sm_60.ptx:28 skipping new declaration
GPGPU-Sim PTX: Warning %rd122 was declared previous at b+tree-rodinia-3.1.sm_60.ptx:28 skipping new declaration
GPGPU-Sim PTX: Warning %rd123 was declared previous at b+tree-rodinia-3.1.sm_60.ptx:28 skipping new declaration
GPGPU-Sim PTX: Warning %rd124 was declared previous at b+tree-rodinia-3.1.sm_60.ptx:28 skipping new declaration
GPGPU-Sim PTX: Warning %rd125 was declared previous at b+tree-rodinia-3.1.sm_60.ptx:28 skipping new declaration
GPGPU-Sim PTX: Warning %rd126 was declared previous at b+tree-rodinia-3.1.sm_60.ptx:28 skipping new declaration
GPGPU-Sim PTX: Warning %rd127 was declared previous at b+tree-rodinia-3.1.sm_60.ptx:28 skipping new declaration
GPGPU-Sim PTX: Warning %rd128 was declared previous at b+tree-rodinia-3.1.sm_60.ptx:28 skipping new declaration
GPGPU-Sim PTX: Warning %rd129 was declared previous at b+tree-rodinia-3.1.sm_60.ptx:28 skipping new declaration
GPGPU-Sim PTX: Warning %rd130 was declared previous at b+tree-rodinia-3.1.sm_60.ptx:28 skipping new declaration
GPGPU-Sim PTX: Warning %rd131 was declared previous at b+tree-rodinia-3.1.sm_60.ptx:28 skipping new declaration
GPGPU-Sim PTX: Warning %rd132 was declared previous at b+tree-rodinia-3.1.sm_60.ptx:28 skipping new declaration
GPGPU-Sim PTX: Warning %rd133 was declared previous at b+tree-rodinia-3.1.sm_60.ptx:28 skipping new declaration
GPGPU-Sim PTX: Warning %rd134 was declared previous at b+tree-rodinia-3.1.sm_60.ptx:28 skipping new declaration
GPGPU-Sim PTX: Warning %rd135 was declared previous at b+tree-rodinia-3.1.sm_60.ptx:28 skipping new declaration
GPGPU-Sim PTX: Warning %rd136 was declared previous at b+tree-rodinia-3.1.sm_60.ptx:28 skipping new declaration
GPGPU-Sim PTX: Warning %rd137 was declared previous at b+tree-rodinia-3.1.sm_60.ptx:28 skipping new declaration
GPGPU-Sim PTX: Warning %rd138 was declared previous at b+tree-rodinia-3.1.sm_60.ptx:28 skipping new declaration
GPGPU-Sim PTX: Warning %rd139 was declared previous at b+tree-rodinia-3.1.sm_60.ptx:28 skipping new declaration
GPGPU-Sim PTX: Warning %rd140 was declared previous at b+tree-rodinia-3.1.sm_60.ptx:28 skipping new declaration
GPGPU-Sim PTX: Warning %rd141 was declared previous at b+tree-rodinia-3.1.sm_60.ptx:28 skipping new declaration
GPGPU-Sim PTX: Warning %rd142 was declared previous at b+tree-rodinia-3.1.sm_60.ptx:28 skipping new declaration
GPGPU-Sim PTX: Warning %rd143 was declared previous at b+tree-rodinia-3.1.sm_60.ptx:28 skipping new declaration
GPGPU-Sim PTX: Warning %rd144 was declared previous at b+tree-rodinia-3.1.sm_60.ptx:28 skipping new declaration
GPGPU-Sim PTX: Warning %rd145 was declared previous at b+tree-rodinia-3.1.sm_60.ptx:28 skipping new declaration
GPGPU-Sim PTX: Warning %rd146 was declared previous at b+tree-rodinia-3.1.sm_60.ptx:28 skipping new declaration
GPGPU-Sim PTX: Warning %rd147 was declared previous at b+tree-rodinia-3.1.sm_60.ptx:28 skipping new declaration
GPGPU-Sim PTX: Warning %rd148 was declared previous at b+tree-rodinia-3.1.sm_60.ptx:28 skipping new declaration
GPGPU-Sim PTX: Warning %rd149 was declared previous at b+tree-rodinia-3.1.sm_60.ptx:28 skipping new declaration
GPGPU-Sim PTX: Warning %rd150 was declared previous at b+tree-rodinia-3.1.sm_60.ptx:28 skipping new declaration
GPGPU-Sim PTX: Warning %rd151 was declared previous at b+tree-rodinia-3.1.sm_60.ptx:28 skipping new declaration
GPGPU-Sim PTX: Warning %rd152 was declared previous at b+tree-rodinia-3.1.sm_60.ptx:28 skipping new declaration
GPGPU-Sim PTX: Warning %rd153 was declared previous at b+tree-rodinia-3.1.sm_60.ptx:28 skipping new declaration
GPGPU-Sim PTX: Warning %rd154 was declared previous at b+tree-rodinia-3.1.sm_60.ptx:28 skipping new declaration
GPGPU-Sim PTX: Warning %rd155 was declared previous at b+tree-rodinia-3.1.sm_60.ptx:28 skipping new declaration
GPGPU-Sim PTX: Warning %rd156 was declared previous at b+tree-rodinia-3.1.sm_60.ptx:28 skipping new declaration
GPGPU-Sim PTX: Warning %rd157 was declared previous at b+tree-rodinia-3.1.sm_60.ptx:28 skipping new declaration
GPGPU-Sim PTX: Warning %rd158 was declared previous at b+tree-rodinia-3.1.sm_60.ptx:28 skipping new declaration
GPGPU-Sim PTX: Warning %rd159 was declared previous at b+tree-rodinia-3.1.sm_60.ptx:28 skipping new declaration
GPGPU-Sim PTX: Warning %rd160 was declared previous at b+tree-rodinia-3.1.sm_60.ptx:28 skipping new declaration
GPGPU-Sim PTX: Warning %rd161 was declared previous at b+tree-rodinia-3.1.sm_60.ptx:28 skipping new declaration
GPGPU-Sim PTX: Warning %rd162 was declared previous at b+tree-rodinia-3.1.sm_60.ptx:28 skipping new declaration
GPGPU-Sim PTX: Warning %rd163 was declared previous at b+tree-rodinia-3.1.sm_60.ptx:28 skipping new declaration
GPGPU-Sim PTX: Warning %rd164 was declared previous at b+tree-rodinia-3.1.sm_60.ptx:28 skipping new declaration
GPGPU-Sim PTX: Warning %rd165 was declared previous at b+tree-rodinia-3.1.sm_60.ptx:28 skipping new declaration
GPGPU-Sim PTX: Warning %rd166 was declared previous at b+tree-rodinia-3.1.sm_60.ptx:28 skipping new declaration
GPGPU-Sim PTX: Warning %rd167 was declared previous at b+tree-rodinia-3.1.sm_60.ptx:28 skipping new declaration
GPGPU-Sim PTX: Warning %rd168 was declared previous at b+tree-rodinia-3.1.sm_60.ptx:28 skipping new declaration
GPGPU-Sim PTX: Warning %rd169 was declared previous at b+tree-rodinia-3.1.sm_60.ptx:28 skipping new declaration
GPGPU-Sim PTX: Warning %rd170 was declared previous at b+tree-rodinia-3.1.sm_60.ptx:28 skipping new declaration
GPGPU-Sim PTX: Warning %rd171 was declared previous at b+tree-rodinia-3.1.sm_60.ptx:28 skipping new declaration
GPGPU-Sim PTX: Warning %rd172 was declared previous at b+tree-rodinia-3.1.sm_60.ptx:28 skipping new declaration
GPGPU-Sim PTX: Warning %rd173 was declared previous at b+tree-rodinia-3.1.sm_60.ptx:28 skipping new declaration
GPGPU-Sim PTX: instruction assembly for function 'findK'...   done.
GPGPU-Sim PTX: finished parsing EMBEDDED .ptx file b+tree-rodinia-3.2.sm_62.ptx
GPGPU-Sim PTX: Parsing b+tree-rodinia-3.6.sm_62.ptx
GPGPU-Sim PTX: Warning %p0 was declared previous at b+tree-rodinia-3.5.sm_60.ptx:29 skipping new declaration
GPGPU-Sim PTX: Warning %p1 was declared previous at b+tree-rodinia-3.5.sm_60.ptx:29 skipping new declaration
GPGPU-Sim PTX: Warning %p2 was declared previous at b+tree-rodinia-3.5.sm_60.ptx:29 skipping new declaration
GPGPU-Sim PTX: Warning %p3 was declared previous at b+tree-rodinia-3.5.sm_60.ptx:29 skipping new declaration
GPGPU-Sim PTX: Warning %p4 was declared previous at b+tree-rodinia-3.5.sm_60.ptx:29 skipping new declaration
GPGPU-Sim PTX: Warning %p5 was declared previous at b+tree-rodinia-3.5.sm_60.ptx:29 skipping new declaration
GPGPU-Sim PTX: Warning %p6 was declared previous at b+tree-rodinia-3.5.sm_60.ptx:29 skipping new declaration
GPGPU-Sim PTX: Warning %p7 was declared previous at b+tree-rodinia-3.5.sm_60.ptx:29 skipping new declaration
GPGPU-Sim PTX: Warning %p8 was declared previous at b+tree-rodinia-3.5.sm_60.ptx:29 skipping new declaration
GPGPU-Sim PTX: Warning %p9 was declared previous at b+tree-rodinia-3.5.sm_60.ptx:29 skipping new declaration
GPGPU-Sim PTX: Warning %p10 was declared previous at b+tree-rodinia-3.5.sm_60.ptx:29 skipping new declaration
GPGPU-Sim PTX: Warning %p11 was declared previous at b+tree-rodinia-3.5.sm_60.ptx:29 skipping new declaration
GPGPU-Sim PTX: Warning %p12 was declared previous at b+tree-rodinia-3.5.sm_60.ptx:29 skipping new declaration
GPGPU-Sim PTX: Warning %p13 was declared previous at b+tree-rodinia-3.5.sm_60.ptx:29 skipping new declaration
GPGPU-Sim PTX: Warning %p14 was declared previous at b+tree-rodinia-3.5.sm_60.ptx:29 skipping new declaration
GPGPU-Sim PTX: Warning %p15 was declared previous at b+tree-rodinia-3.5.sm_60.ptx:29 skipping new declaration
GPGPU-Sim PTX: Warning %p16 was declared previous at b+tree-rodinia-3.5.sm_60.ptx:29 skipping new declaration
GPGPU-Sim PTX: Warning %p17 was declared previous at b+tree-rodinia-3.5.sm_60.ptx:29 skipping new declaration
GPGPU-Sim PTX: Warning %p18 was declared previous at b+tree-rodinia-3.5.sm_60.ptx:29 skipping new declaration
GPGPU-Sim PTX: Warning %p19 was declared previous at b+tree-rodinia-3.5.sm_60.ptx:29 skipping new declaration
GPGPU-Sim PTX: Warning %p20 was declared previous at b+tree-rodinia-3.5.sm_60.ptx:29 skipping new declaration
GPGPU-Sim PTX: Warning %p21 was declared previous at b+tree-rodinia-3.5.sm_60.ptx:29 skipping new declaration
GPGPU-Sim PTX: Warning %p22 was declared previous at b+tree-rodinia-3.5.sm_60.ptx:29 skipping new declaration
GPGPU-Sim PTX: Warning %p23 was declared previous at b+tree-rodinia-3.5.sm_60.ptx:29 skipping new declaration
GPGPU-Sim PTX: Warning %p24 was declared previous at b+tree-rodinia-3.5.sm_60.ptx:29 skipping new declaration
GPGPU-Sim PTX: Warning %p25 was declared previous at b+tree-rodinia-3.5.sm_60.ptx:29 skipping new declaration
GPGPU-Sim PTX: Warning %p26 was declared previous at b+tree-rodinia-3.5.sm_60.ptx:29 skipping new declaration
GPGPU-Sim PTX: Warning %p27 was declared previous at b+tree-rodinia-3.5.sm_60.ptx:29 skipping new declaration
GPGPU-Sim PTX: Warning %p28 was declared previous at b+tree-rodinia-3.5.sm_60.ptx:29 skipping new declaration
GPGPU-Sim PTX: Warning %p29 was declared previous at b+tree-rodinia-3.5.sm_60.ptx:29 skipping new declaration
GPGPU-Sim PTX: Warning %p30 was declared previous at b+tree-rodinia-3.5.sm_60.ptx:29 skipping new declaration
GPGPU-Sim PTX: Warning %p31 was declared previous at b+tree-rodinia-3.5.sm_60.ptx:29 skipping new declaration
GPGPU-Sim PTX: Warning %p32 was declared previous at b+tree-rodinia-3.5.sm_60.ptx:29 skipping new declaration
GPGPU-Sim PTX: Warning %p33 was declared previous at b+tree-rodinia-3.5.sm_60.ptx:29 skipping new declaration
GPGPU-Sim PTX: Warning %p34 was declared previous at b+tree-rodinia-3.5.sm_60.ptx:29 skipping new declaration
GPGPU-Sim PTX: Warning %p35 was declared previous at b+tree-rodinia-3.5.sm_60.ptx:29 skipping new declaration
GPGPU-Sim PTX: Warning %p36 was declared previous at b+tree-rodinia-3.5.sm_60.ptx:29 skipping new declaration
GPGPU-Sim PTX: Warning %p37 was declared previous at b+tree-rodinia-3.5.sm_60.ptx:29 skipping new declaration
GPGPU-Sim PTX: Warning %p38 was declared previous at b+tree-rodinia-3.5.sm_60.ptx:29 skipping new declaration
GPGPU-Sim PTX: Warning %p39 was declared previous at b+tree-rodinia-3.5.sm_60.ptx:29 skipping new declaration
GPGPU-Sim PTX: Warning %p40 was declared previous at b+tree-rodinia-3.5.sm_60.ptx:29 skipping new declaration
GPGPU-Sim PTX: Warning %p41 was declared previous at b+tree-rodinia-3.5.sm_60.ptx:29 skipping new declaration
GPGPU-Sim PTX: Warning %p42 was declared previous at b+tree-rodinia-3.5.sm_60.ptx:29 skipping new declaration
GPGPU-Sim PTX: Warning %p43 was declared previous at b+tree-rodinia-3.5.sm_60.ptx:29 skipping new declaration
GPGPU-Sim PTX: Warning %p44 was declared previous at b+tree-rodinia-3.5.sm_60.ptx:29 skipping new declaration
GPGPU-Sim PTX: Warning %p45 was declared previous at b+tree-rodinia-3.5.sm_60.ptx:29 skipping new declaration
GPGPU-Sim PTX: Warning %p46 was declared previous at b+tree-rodinia-3.5.sm_60.ptx:29 skipping new declaration
GPGPU-Sim PTX: Warning %p47 was declared previous at b+tree-rodinia-3.5.sm_60.ptx:29 skipping new declaration
GPGPU-Sim PTX: Warning %p48 was declared previous at b+tree-rodinia-3.5.sm_60.ptx:29 skipping new declaration
GPGPU-Sim PTX: Warning %p49 was declared previous at b+tree-rodinia-3.5.sm_60.ptx:29 skipping new declaration
GPGPU-Sim PTX: Warning %p50 was declared previous at b+tree-rodinia-3.5.sm_60.ptx:29 skipping new declaration
GPGPU-Sim PTX: Warning %p51 was declared previous at b+tree-rodinia-3.5.sm_60.ptx:29 skipping new declaration
GPGPU-Sim PTX: Warning %p52 was declared previous at b+tree-rodinia-3.5.sm_60.ptx:29 skipping new declaration
GPGPU-Sim PTX: Warning %p53 was declared previous at b+tree-rodinia-3.5.sm_60.ptx:29 skipping new declaration
GPGPU-Sim PTX: Warning %p54 was declared previous at b+tree-rodinia-3.5.sm_60.ptx:29 skipping new declaration
GPGPU-Sim PTX: Warning %p55 was declared previous at b+tree-rodinia-3.5.sm_60.ptx:29 skipping new declaration
GPGPU-Sim PTX: Warning %p56 was declared previous at b+tree-rodinia-3.5.sm_60.ptx:29 skipping new declaration
GPGPU-Sim PTX: Warning %p57 was declared previous at b+tree-rodinia-3.5.sm_60.ptx:29 skipping new declaration
GPGPU-Sim PTX: Warning %r0 was declared previous at b+tree-rodinia-3.5.sm_60.ptx:30 skipping new declaration
GPGPU-Sim PTX: Warning %r1 was declared previous at b+tree-rodinia-3.5.sm_60.ptx:30 skipping new declaration
GPGPU-Sim PTX: Warning %r2 was declared previous at b+tree-rodinia-3.5.sm_60.ptx:30 skipping new declaration
GPGPU-Sim PTX: Warning %r3 was declared previous at b+tree-rodinia-3.5.sm_60.ptx:30 skipping new declaration
GPGPU-Sim PTX: Warning %r4 was declared previous at b+tree-rodinia-3.5.sm_60.ptx:30 skipping new declaration
GPGPU-Sim PTX: Warning %r5 was declared previous at b+tree-rodinia-3.5.sm_60.ptx:30 skipping new declaration
GPGPU-Sim PTX: Warning %r6 was declared previous at b+tree-rodinia-3.5.sm_60.ptx:30 skipping new declaration
GPGPU-Sim PTX: Warning %r7 was declared previous at b+tree-rodinia-3.5.sm_60.ptx:30 skipping new declaration
GPGPU-Sim PTX: Warning %r8 was declared previous at b+tree-rodinia-3.5.sm_60.ptx:30 skipping new declaration
GPGPU-Sim PTX: Warning %r9 was declared previous at b+tree-rodinia-3.5.sm_60.ptx:30 skipping new declaration
GPGPU-Sim PTX: Warning %r10 was declared previous at b+tree-rodinia-3.5.sm_60.ptx:30 skipping new declaration
GPGPU-Sim PTX: Warning %r11 was declared previous at b+tree-rodinia-3.5.sm_60.ptx:30 skipping new declaration
GPGPU-Sim PTX: Warning %r12 was declared previous at b+tree-rodinia-3.5.sm_60.ptx:30 skipping new declaration
GPGPU-Sim PTX: Warning %r13 was declared previous at b+tree-rodinia-3.5.sm_60.ptx:30 skipping new declaration
GPGPU-Sim PTX: Warning %r14 was declared previous at b+tree-rodinia-3.5.sm_60.ptx:30 skipping new declaration
GPGPU-Sim PTX: Warning %r15 was declared previous at b+tree-rodinia-3.5.sm_60.ptx:30 skipping new declaration
GPGPU-Sim PTX: Warning %r16 was declared previous at b+tree-rodinia-3.5.sm_60.ptx:30 skipping new declaration
GPGPU-Sim PTX: Warning %r17 was declared previous at b+tree-rodinia-3.5.sm_60.ptx:30 skipping new declaration
GPGPU-Sim PTX: Warning %r18 was declared previous at b+tree-rodinia-3.5.sm_60.ptx:30 skipping new declaration
GPGPU-Sim PTX: Warning %r19 was declared previous at b+tree-rodinia-3.5.sm_60.ptx:30 skipping new declaration
GPGPU-Sim PTX: Warning %r20 was declared previous at b+tree-rodinia-3.5.sm_60.ptx:30 skipping new declaration
GPGPU-Sim PTX: Warning %r21 was declared previous at b+tree-rodinia-3.5.sm_60.ptx:30 skipping new declaration
GPGPU-Sim PTX: Warning %r22 was declared previous at b+tree-rodinia-3.5.sm_60.ptx:30 skipping new declaration
GPGPU-Sim PTX: Warning %r23 was declared previous at b+tree-rodinia-3.5.sm_60.ptx:30 skipping new declaration
GPGPU-Sim PTX: Warning %r24 was declared previous at b+tree-rodinia-3.5.sm_60.ptx:30 skipping new declaration
GPGPU-Sim PTX: Warning %r25 was declared previous at b+tree-rodinia-3.5.sm_60.ptx:30 skipping new declaration
GPGPU-Sim PTX: Warning %r26 was declared previous at b+tree-rodinia-3.5.sm_60.ptx:30 skipping new declaration
GPGPU-Sim PTX: Warning %r27 was declared previous at b+tree-rodinia-3.5.sm_60.ptx:30 skipping new declaration
GPGPU-Sim PTX: Warning %r28 was declared previous at b+tree-rodinia-3.5.sm_60.ptx:30 skipping new declaration
GPGPU-Sim PTX: Warning %r29 was declared previous at b+tree-rodinia-3.5.sm_60.ptx:30 skipping new declaration
GPGPU-Sim PTX: Warning %r30 was declared previous at b+tree-rodinia-3.5.sm_60.ptx:30 skipping new declaration
GPGPU-Sim PTX: Warning %r31 was declared previous at b+tree-rodinia-3.5.sm_60.ptx:30 skipping new declaration
GPGPU-Sim PTX: Warning %r32 was declared previous at b+tree-rodinia-3.5.sm_60.ptx:30 skipping new declaration
GPGPU-Sim PTX: Warning %r33 was declared previous at b+tree-rodinia-3.5.sm_60.ptx:30 skipping new declaration
GPGPU-Sim PTX: Warning %r34 was declared previous at b+tree-rodinia-3.5.sm_60.ptx:30 skipping new declaration
GPGPU-Sim PTX: Warning %r35 was declared previous at b+tree-rodinia-3.5.sm_60.ptx:30 skipping new declaration
GPGPU-Sim PTX: Warning %r36 was declared previous at b+tree-rodinia-3.5.sm_60.ptx:30 skipping new declaration
GPGPU-Sim PTX: Warning %r37 was declared previous at b+tree-rodinia-3.5.sm_60.ptx:30 skipping new declaration
GPGPU-Sim PTX: Warning %r38 was declared previous at b+tree-rodinia-3.5.sm_60.ptx:30 skipping new declaration
GPGPU-Sim PTX: Warning %r39 was declared previous at b+tree-rodinia-3.5.sm_60.ptx:30 skipping new declaration
GPGPU-Sim PTX: Warning %r40 was declared previous at b+tree-rodinia-3.5.sm_60.ptx:30 skipping new declaration
GPGPU-Sim PTX: Warning %r41 was declared previous at b+tree-rodinia-3.5.sm_60.ptx:30 skipping new declaration
GPGPU-Sim PTX: Warning %r42 was declared previous at b+tree-rodinia-3.5.sm_60.ptx:30 skipping new declaration
GPGPU-Sim PTX: Warning %r43 was declared previous at b+tree-rodinia-3.5.sm_60.ptx:30 skipping new declaration
GPGPU-Sim PTX: Warning %r44 was declared previous at b+tree-rodinia-3.5.sm_60.ptx:30 skipping new declaration
GPGPU-Sim PTX: Warning %r45 was declared previous at b+tree-rodinia-3.5.sm_60.ptx:30 skipping new declaration
GPGPU-Sim PTX: Warning %r46 was declared previous at b+tree-rodinia-3.5.sm_60.ptx:30 skipping new declaration
GPGPU-Sim PTX: Warning %r47 was declared previous at b+tree-rodinia-3.5.sm_60.ptx:30 skipping new declaration
GPGPU-Sim PTX: Warning %r48 was declared previous at b+tree-rodinia-3.5.sm_60.ptx:30 skipping new declaration
GPGPU-Sim PTX: Warning %r49 was declared previous at b+tree-rodinia-3.5.sm_60.ptx:30 skipping new declaration
GPGPU-Sim PTX: Warning %r50 was declared previous at b+tree-rodinia-3.5.sm_60.ptx:30 skipping new declaration
GPGPU-Sim PTX: Warning %r51 was declared previous at b+tree-rodinia-3.5.sm_60.ptx:30 skipping new declaration
GPGPU-Sim PTX: Warning %r52 was declared previous at b+tree-rodinia-3.5.sm_60.ptx:30 skipping new declaration
GPGPU-Sim PTX: Warning %r53 was declared previous at b+tree-rodinia-3.5.sm_60.ptx:30 skipping new declaration
GPGPU-Sim PTX: Warning %r54 was declared previous at b+tree-rodinia-3.5.sm_60.ptx:30 skipping new declaration
GPGPU-Sim PTX: Warning %r55 was declared previous at b+tree-rodinia-3.5.sm_60.ptx:30 skipping new declaration
GPGPU-Sim PTX: Warning %r56 was declared previous at b+tree-rodinia-3.5.sm_60.ptx:30 skipping new declaration
GPGPU-Sim PTX: Warning %r57 was declared previous at b+tree-rodinia-3.5.sm_60.ptx:30 skipping new declaration
GPGPU-Sim PTX: Warning %r58 was declared previous at b+tree-rodinia-3.5.sm_60.ptx:30 skipping new declaration
GPGPU-Sim PTX: Warning %r59 was declared previous at b+tree-rodinia-3.5.sm_60.ptx:30 skipping new declaration
GPGPU-Sim PTX: Warning %r60 was declared previous at b+tree-rodinia-3.5.sm_60.ptx:30 skipping new declaration
GPGPU-Sim PTX: Warning %r61 was declared previous at b+tree-rodinia-3.5.sm_60.ptx:30 skipping new declaration
GPGPU-Sim PTX: Warning %r62 was declared previous at b+tree-rodinia-3.5.sm_60.ptx:30 skipping new declaration
GPGPU-Sim PTX: Warning %r63 was declared previous at b+tree-rodinia-3.5.sm_60.ptx:30 skipping new declaration
GPGPU-Sim PTX: Warning %r64 was declared previous at b+tree-rodinia-3.5.sm_60.ptx:30 skipping new declaration
GPGPU-Sim PTX: Warning %r65 was declared previous at b+tree-rodinia-3.5.sm_60.ptx:30 skipping new declaration
[...]
Read = 48197 
Write = 0 
L2_Alloc = 0 
L2_WB = 724 
n_act = 13196 
n_pre = 13180 
n_ref = 0 
n_req = 48378 
total_req = 48921 

Dual Bus Interface Util: 
issued_total_row = 26376 
issued_total_col = 48921 
Row_Bus_Util =  0.009693 
CoL_Bus_Util = 0.017978 
Either_Row_CoL_Bus_Util = 0.027614 
Issued_on_Two_Bus_Simul_Util = 0.000057 
issued_two_Eff = 0.002063 
queue_avg = 0.280869 


dram_util_bins: 0 0 0 0 0 0 0 0 0 0
dram_eff_bins: 0 0 0 0 0 0 0 0 0 0
mrqq: max=16 avg=0.280869
Memory Partition 7: 
Cache L2_bank_014:
MSHR contents

Cache L2_bank_015:
MSHR contents

In Dram Latency Queue (total = 0): 
DRAM[7]: 16 bks, busW=4 BL=8 CL=16, tRRD=8 tCCD=2, tRCD=16 tRAS=37 tRP=16 tRC=52
n_cmd=2721188 n_nop=2646579 n_act=13052 n_pre=13036 n_ref_event=0 n_req=48054 n_rd=47846 n_rd_L2_A=0 n_write=0 n_wr_bk=832 bw_util=0.03578
n_activity=719020 dram_eff=0.1354
bk0: 2927a 2686977i bk1: 3328a 2682983i bk2: 3136a 2686645i bk3: 2946a 2688784i bk4: 2762a 2689801i bk5: 2830a 2689738i bk6: 3061a 2687763i bk7: 3002a 2688762i bk8: 3059a 2686393i bk9: 3095a 2686751i bk10: 2994a 2686896i bk11: 3036a 2686854i bk12: 2737a 2687874i bk13: 3035a 2686846i bk14: 3034a 2686696i bk15: 2864a 2688175i 

------------------------------------------------------------------------

Row_Buffer_Locality = 0.728514
Row_Buffer_Locality_read = 0.731305
Row_Buffer_Locality_write = 0.086538
Bank_Level_Parallism = 1.212594
Bank_Level_Parallism_Col = 1.127036
Bank_Level_Parallism_Ready = 1.024237
write_to_read_ratio_blp_rw_average = 0.020900
GrpLevelPara = 1.105854 

BW Util details:
bwutil = 0.035777 
total_CMD = 2721188 
util_bw = 97356 
Wasted_Col = 234317 
Wasted_Row = 156462 
Idle = 2233053 

BW Util Bottlenecks: 
RCDc_limit = 191734 
RCDWRc_limit = 1407 
WTRc_limit = 1598 
RTWc_limit = 3562 
CCDLc_limit = 60196 
rwq = 0 
CCDLc_limit_alone = 59815 
WTRc_limit_alone = 1536 
RTWc_limit_alone = 3243 

Commands details: 
total_CMD = 2721188 
n_nop = 2646579 
Read = 47846 
Write = 0 
L2_Alloc = 0 
L2_WB = 832 
n_act = 13052 
n_pre = 13036 
n_ref = 0 
n_req = 48054 
total_req = 48678 

Dual Bus Interface Util: 
issued_total_row = 26088 
issued_total_col = 48678 
Row_Bus_Util =  0.009587 
CoL_Bus_Util = 0.017889 
Either_Row_CoL_Bus_Util = 0.027418 
Issued_on_Two_Bus_Simul_Util = 0.000058 
issued_two_Eff = 0.002104 
queue_avg = 0.279979 


dram_util_bins: 0 0 0 0 0 0 0 0 0 0
dram_eff_bins: 0 0 0 0 0 0 0 0 0 0
mrqq: max=15 avg=0.279979
Memory Partition 8: 
Cache L2_bank_016:
MSHR contents

Cache L2_bank_017:
MSHR contents

In Dram Latency Queue (total = 0): 
DRAM[8]: 16 bks, busW=4 BL=8 CL=16, tRRD=8 tCCD=2, tRCD=16 tRAS=37 tRP=16 tRC=52
n_cmd=2721188 n_nop=2647291 n_act=12940 n_pre=12924 n_ref_event=0 n_req=47534 n_rd=47326 n_rd_L2_A=0 n_write=0 n_wr_bk=832 bw_util=0.03539
n_activity=712527 dram_eff=0.1352
bk0: 3063a 2686928i bk1: 3133a 2684857i bk2: 3039a 2687771i bk3: 2949a 2688910i bk4: 3239a 2685320i bk5: 2869a 2689431i bk6: 3035a 2686985i bk7: 2875a 2689126i bk8: 2859a 2688407i bk9: 3042a 2687944i bk10: 2787a 2689244i bk11: 2879a 2688517i bk12: 3105a 2685401i bk13: 2827a 2687826i bk14: 2860a 2688230i bk15: 2765a 2690040i 

------------------------------------------------------------------------

Row_Buffer_Locality = 0.727900
Row_Buffer_Locality_read = 0.730740
Row_Buffer_Locality_write = 0.081731
Bank_Level_Parallism = 1.214031
Bank_Level_Parallism_Col = 1.127958
Bank_Level_Parallism_Ready = 1.023176
write_to_read_ratio_blp_rw_average = 0.021643
GrpLevelPara = 1.107988 

BW Util details:
bwutil = 0.035395 
total_CMD = 2721188 
util_bw = 96316 
Wasted_Col = 231005 
Wasted_Row = 154280 
Idle = 2239587 

BW Util Bottlenecks: 
RCDc_limit = 189929 
RCDWRc_limit = 1361 
WTRc_limit = 1557 
RTWc_limit = 3606 
CCDLc_limit = 58614 
rwq = 0 
CCDLc_limit_alone = 58229 
WTRc_limit_alone = 1453 
RTWc_limit_alone = 3325 

Commands details: 
total_CMD = 2721188 
n_nop = 2647291 
Read = 47326 
Write = 0 
L2_Alloc = 0 
L2_WB = 832 
n_act = 12940 
n_pre = 12924 
n_ref = 0 
n_req = 47534 
total_req = 48158 

Dual Bus Interface Util: 
issued_total_row = 25864 
issued_total_col = 48158 
Row_Bus_Util =  0.009505 
CoL_Bus_Util = 0.017697 
Either_Row_CoL_Bus_Util = 0.027156 
Issued_on_Two_Bus_Simul_Util = 0.000046 
issued_two_Eff = 0.001692 
queue_avg = 0.271275 


dram_util_bins: 0 0 0 0 0 0 0 0 0 0
dram_eff_bins: 0 0 0 0 0 0 0 0 0 0
mrqq: max=16 avg=0.271275
Memory Partition 9: 
Cache L2_bank_018:
MSHR contents

Cache L2_bank_019:
MSHR contents

In Dram Latency Queue (total = 0): 
DRAM[9]: 16 bks, busW=4 BL=8 CL=16, tRRD=8 tCCD=2, tRCD=16 tRAS=37 tRP=16 tRC=52
n_cmd=2721188 n_nop=2646848 n_act=13029 n_pre=13013 n_ref_event=0 n_req=47806 n_rd=47597 n_rd_L2_A=0 n_write=0 n_wr_bk=836 bw_util=0.0356
n_activity=715533 dram_eff=0.1354
bk0: 3159a 2685415i bk1: 2842a 2687346i bk2: 2645a 2690782i bk3: 2986a 2687984i bk4: 2950a 2688147i bk5: 3146a 2686300i bk6: 2949a 2688196i bk7: 2950a 2688090i bk8: 2889a 2688300i bk9: 2890a 2689590i bk10: 3069a 2685550i bk11: 2978a 2687349i bk12: 3113a 2685692i bk13: 3063a 2686446i bk14: 2883a 2687942i bk15: 3085a 2687366i 

------------------------------------------------------------------------

Row_Buffer_Locality = 0.727587
Row_Buffer_Locality_read = 0.730382
Row_Buffer_Locality_write = 0.090909
Bank_Level_Parallism = 1.213495
Bank_Level_Parallism_Col = 1.126391
Bank_Level_Parallism_Ready = 1.023799
write_to_read_ratio_blp_rw_average = 0.020748
GrpLevelPara = 1.107961 

BW Util details:
bwutil = 0.035597 
total_CMD = 2721188 
util_bw = 96866 
Wasted_Col = 232731 
Wasted_Row = 155973 
Idle = 2235618 

BW Util Bottlenecks: 
RCDc_limit = 191395 
RCDWRc_limit = 1412 
WTRc_limit = 1300 
RTWc_limit = 3270 
CCDLc_limit = 59010 
rwq = 0 
CCDLc_limit_alone = 58702 
WTRc_limit_alone = 1253 
RTWc_limit_alone = 3009 

Commands details: 
total_CMD = 2721188 
n_nop = 2646848 
Read = 47597 
Write = 0 
L2_Alloc = 0 
L2_WB = 836 
n_act = 13029 
n_pre = 13013 
n_ref = 0 
n_req = 47806 
total_req = 48433 

Dual Bus Interface Util: 
issued_total_row = 26042 
issued_total_col = 48433 
Row_Bus_Util =  0.009570 
CoL_Bus_Util = 0.017798 
Either_Row_CoL_Bus_Util = 0.027319 
Issued_on_Two_Bus_Simul_Util = 0.000050 
issued_two_Eff = 0.001816 
queue_avg = 0.273801 


dram_util_bins: 0 0 0 0 0 0 0 0 0 0
dram_eff_bins: 0 0 0 0 0 0 0 0 0 0
mrqq: max=15 avg=0.273801
Memory Partition 10: 
Cache L2_bank_020:
MSHR contents

Cache L2_bank_021:
MSHR contents

In Dram Latency Queue (total = 0): 
DRAM[10]: 16 bks, busW=4 BL=8 CL=16, tRRD=8 tCCD=2, tRCD=16 tRAS=37 tRP=16 tRC=52
n_cmd=2721188 n_nop=2644058 n_act=13446 n_pre=13430 n_ref_event=0 n_req=49743 n_rd=49519 n_rd_L2_A=0 n_write=0 n_wr_bk=896 bw_util=0.03705
n_activity=735792 dram_eff=0.137
bk0: 3191a 2684815i bk1: 3120a 2685576i bk2: 2895a 2688447i bk3: 3175a 2686023i bk4: 2898a 2688941i bk5: 2814a 2689319i bk6: 3223a 2685713i bk7: 3014a 2688320i bk8: 3350a 2684731i bk9: 3237a 2685416i bk10: 3074a 2686814i bk11: 2987a 2686516i bk12: 3089a 2685315i bk13: 3217a 2684085i bk14: 3022a 2686335i bk15: 3213a 2685316i 

------------------------------------------------------------------------

Row_Buffer_Locality = 0.729811
Row_Buffer_Locality_read = 0.732709
Row_Buffer_Locality_write = 0.089286
Bank_Level_Parallism = 1.218091
Bank_Level_Parallism_Col = 1.129848
Bank_Level_Parallism_Ready = 1.023281
write_to_read_ratio_blp_rw_average = 0.021730
GrpLevelPara = 1.110229 

BW Util details:
bwutil = 0.037054 
total_CMD = 2721188 
util_bw = 100830 
Wasted_Col = 240196 
Wasted_Row = 159795 
Idle = 2220367 

BW Util Bottlenecks: 
RCDc_limit = 197146 
RCDWRc_limit = 1525 
WTRc_limit = 1736 
RTWc_limit = 3726 
CCDLc_limit = 61616 
rwq = 0 
CCDLc_limit_alone = 61211 
WTRc_limit_alone = 1628 
RTWc_limit_alone = 3429 

Commands details: 
total_CMD = 2721188 
n_nop = 2644058 
Read = 49519 
Write = 0 
L2_Alloc = 0 
L2_WB = 896 
n_act = 13446 
n_pre = 13430 
n_ref = 0 
n_req = 49743 
total_req = 50415 

Dual Bus Interface Util: 
issued_total_row = 26876 
issued_total_col = 50415 
Row_Bus_Util =  0.009877 
CoL_Bus_Util = 0.018527 
Either_Row_CoL_Bus_Util = 0.028344 
Issued_on_Two_Bus_Simul_Util = 0.000059 
issued_two_Eff = 0.002087 
queue_avg = 0.286339 


dram_util_bins: 0 0 0 0 0 0 0 0 0 0
dram_eff_bins: 0 0 0 0 0 0 0 0 0 0
mrqq: max=19 avg=0.286339
Memory Partition 11: 
Cache L2_bank_022:
MSHR contents

Cache L2_bank_023:
MSHR contents

In Dram Latency Queue (total = 0): 
DRAM[11]: 16 bks, busW=4 BL=8 CL=16, tRRD=8 tCCD=2, tRCD=16 tRAS=37 tRP=16 tRC=52
n_cmd=2721188 n_nop=2645536 n_act=13242 n_pre=13226 n_ref_event=0 n_req=48599 n_rd=48358 n_rd_L2_A=0 n_write=0 n_wr_bk=964 bw_util=0.03625
n_activity=727429 dram_eff=0.1356
bk0: 3086a 2685950i bk1: 2916a 2686306i bk2: 2928a 2687448i bk3: 2883a 2689015i bk4: 2828a 2688982i bk5: 2939a 2687497i bk6: 3090a 2686771i bk7: 3159a 2687043i bk8: 3119a 2685891i bk9: 3211a 2685626i bk10: 3184a 2684506i bk11: 2933a 2688038i bk12: 3030a 2685866i bk13: 3021a 2685714i bk14: 3074a 2687070i bk15: 2957a 2688080i 

------------------------------------------------------------------------

Row_Buffer_Locality = 0.727669
Row_Buffer_Locality_read = 0.730799
Row_Buffer_Locality_write = 0.099585
Bank_Level_Parallism = 1.214548
Bank_Level_Parallism_Col = 1.126681
Bank_Level_Parallism_Ready = 1.023473
write_to_read_ratio_blp_rw_average = 0.024060
GrpLevelPara = 1.106741 

BW Util details:
bwutil = 0.036250 
total_CMD = 2721188 
util_bw = 98644 
Wasted_Col = 237422 
Wasted_Row = 158484 
Idle = 2226638 

BW Util Bottlenecks: 
RCDc_limit = 194049 
RCDWRc_limit = 1620 
WTRc_limit = 1675 
RTWc_limit = 3874 
CCDLc_limit = 60479 
rwq = 0 
CCDLc_limit_alone = 60086 
WTRc_limit_alone = 1589 
RTWc_limit_alone = 3567 

Commands details: 
total_CMD = 2721188 
n_nop = 2645536 
Read = 48358 
Write = 0 
L2_Alloc = 0 
L2_WB = 964 
n_act = 13242 
n_pre = 13226 
n_ref = 0 
n_req = 48599 
total_req = 49322 

Dual Bus Interface Util: 
issued_total_row = 26468 
issued_total_col = 49322 
Row_Bus_Util =  0.009727 
CoL_Bus_Util = 0.018125 
Either_Row_CoL_Bus_Util = 0.027801 
Issued_on_Two_Bus_Simul_Util = 0.000051 
issued_two_Eff = 0.001824 
queue_avg = 0.280726 


dram_util_bins: 0 0 0 0 0 0 0 0 0 0
dram_eff_bins: 0 0 0 0 0 0 0 0 0 0
mrqq: max=14 avg=0.280726

========= L2 cache stats =========
L2_cache_bank[0]: Access = 200764, Miss = 24970, Miss_rate = 0.124, Pending_hits = 10647, Reservation_fails = 0
L2_cache_bank[1]: Access = 125821, Miss = 24343, Miss_rate = 0.193, Pending_hits = 8733, Reservation_fails = 0
L2_cache_bank[2]: Access = 148762, Miss = 25858, Miss_rate = 0.174, Pending_hits = 11503, Reservation_fails = 0
L2_cache_bank[3]: Access = 199192, Miss = 25272, Miss_rate = 0.127, Pending_hits = 9471, Reservation_fails = 0
L2_cache_bank[4]: Access = 130066, Miss = 25310, Miss_rate = 0.195, Pending_hits = 11027, Reservation_fails = 0
L2_cache_bank[5]: Access = 121863, Miss = 24743, Miss_rate = 0.203, Pending_hits = 8813, Reservation_fails = 0
L2_cache_bank[6]: Access = 139657, Miss = 25315, Miss_rate = 0.181, Pending_hits = 9971, Reservation_fails = 0
L2_cache_bank[7]: Access = 211897, Miss = 25016, Miss_rate = 0.118, Pending_hits = 9771, Reservation_fails = 0
L2_cache_bank[8]: Access = 137021, Miss = 25522, Miss_rate = 0.186, Pending_hits = 9615, Reservation_fails = 0
L2_cache_bank[9]: Access = 149425, Miss = 25647, Miss_rate = 0.172, Pending_hits = 10512, Reservation_fails = 0
L2_cache_bank[10]: Access = 137272, Miss = 25024, Miss_rate = 0.182, Pending_hits = 10289, Reservation_fails = 0
L2_cache_bank[11]: Access = 200267, Miss = 26550, Miss_rate = 0.133, Pending_hits = 10943, Reservation_fails = 0
L2_cache_bank[12]: Access = 242658, Miss = 25335, Miss_rate = 0.104, Pending_hits = 8461, Reservation_fails = 0
L2_cache_bank[13]: Access = 119043, Miss = 24413, Miss_rate = 0.205, Pending_hits = 9845, Reservation_fails = 0
L2_cache_bank[14]: Access = 122636, Miss = 25637, Miss_rate = 0.209, Pending_hits = 9853, Reservation_fails = 0
L2_cache_bank[15]: Access = 135493, Miss = 24172, Miss_rate = 0.178, Pending_hits = 9220, Reservation_fails = 0
L2_cache_bank[16]: Access = 237221, Miss = 24481, Miss_rate = 0.103, Pending_hits = 10962, Reservation_fails = 0
L2_cache_bank[17]: Access = 219502, Miss = 24888, Miss_rate = 0.113, Pending_hits = 9487, Reservation_fails = 0
L2_cache_bank[18]: Access = 246989, Miss = 24784, Miss_rate = 0.100, Pending_hits = 9576, Reservation_fails = 0
L2_cache_bank[19]: Access = 265921, Miss = 24920, Miss_rate = 0.094, Pending_hits = 9708, Reservation_fails = 0
L2_cache_bank[20]: Access = 203978, Miss = 25622, Miss_rate = 0.126, Pending_hits = 10371, Reservation_fails = 0
L2_cache_bank[21]: Access = 143688, Miss = 26461, Miss_rate = 0.184, Pending_hits = 9302, Reservation_fails = 0
L2_cache_bank[22]: Access = 188610, Miss = 25593, Miss_rate = 0.136, Pending_hits = 10084, Reservation_fails = 0
L2_cache_bank[23]: Access = 221919, Miss = 24933, Miss_rate = 0.112, Pending_hits = 9405, Reservation_fails = 0
L2_total_cache_accesses = 4249665
L2_total_cache_misses = 604809
L2_total_cache_miss_rate = 0.1423
L2_total_cache_pending_hits = 237569
L2_total_cache_reservation_fails = 0
L2_total_cache_breakdown:
	L2_cache_stats_breakdown[GLOBAL_ACC_R][HIT] = 3323200
	L2_cache_stats_breakdown[GLOBAL_ACC_R][HIT_RESERVED] = 237400
	L2_cache_stats_breakdown[GLOBAL_ACC_R][MISS] = 177206
	L2_cache_stats_breakdown[GLOBAL_ACC_R][RESERVATION_FAIL] = 0
	L2_cache_stats_breakdown[GLOBAL_ACC_R][SECTOR_MISS] = 401859
	L2_cache_stats_breakdown[GLOBAL_ACC_R][MSHR_HIT] = 237467
	L2_cache_stats_breakdown[LOCAL_ACC_R][HIT] = 0
	L2_cache_stats_breakdown[LOCAL_ACC_R][HIT_RESERVED] = 0
	L2_cache_stats_breakdown[LOCAL_ACC_R][MISS] = 0
	L2_cache_stats_breakdown[LOCAL_ACC_R][RESERVATION_FAIL] = 0
	L2_cache_stats_breakdown[LOCAL_ACC_R][SECTOR_MISS] = 0
	L2_cache_stats_breakdown[LOCAL_ACC_R][MSHR_HIT] = 0
	L2_cache_stats_breakdown[CONST_ACC_R][HIT] = 0
	L2_cache_stats_breakdown[CONST_ACC_R][HIT_RESERVED] = 0
	L2_cache_stats_breakdown[CONST_ACC_R][MISS] = 0
	L2_cache_stats_breakdown[CONST_ACC_R][RESERVATION_FAIL] = 0
	L2_cache_stats_breakdown[CONST_ACC_R][SECTOR_MISS] = 0
	L2_cache_stats_breakdown[CONST_ACC_R][MSHR_HIT] = 0
	L2_cache_stats_breakdown[TEXTURE_ACC_R][HIT] = 0
	L2_cache_stats_breakdown[TEXTURE_ACC_R][HIT_RESERVED] = 0
	L2_cache_stats_breakdown[TEXTURE_ACC_R][MISS] = 0
	L2_cache_stats_breakdown[TEXTURE_ACC_R][RESERVATION_FAIL] = 0
	L2_cache_stats_breakdown[TEXTURE_ACC_R][SECTOR_MISS] = 0
	L2_cache_stats_breakdown[TEXTURE_ACC_R][MSHR_HIT] = 0
	L2_cache_stats_breakdown[GLOBAL_ACC_W][HIT] = 84087
	L2_cache_stats_breakdown[GLOBAL_ACC_W][HIT_RESERVED] = 169
	L2_cache_stats_breakdown[GLOBAL_ACC_W][MISS] = 1099
	L2_cache_stats_breakdown[GLOBAL_ACC_W][RESERVATION_FAIL] = 0
	L2_cache_stats_breakdown[GLOBAL_ACC_W][SECTOR_MISS] = 24645
	L2_cache_stats_breakdown[GLOBAL_ACC_W][MSHR_HIT] = 0
	L2_cache_stats_breakdown[LOCAL_ACC_W][HIT] = 0
	L2_cache_stats_breakdown[LOCAL_ACC_W][HIT_RESERVED] = 0
	L2_cache_stats_breakdown[LOCAL_ACC_W][MISS] = 0
	L2_cache_stats_breakdown[LOCAL_ACC_W][RESERVATION_FAIL] = 0
	L2_cache_stats_breakdown[LOCAL_ACC_W][SECTOR_MISS] = 0
	L2_cache_stats_breakdown[LOCAL_ACC_W][MSHR_HIT] = 0
	L2_cache_stats_breakdown[L1_WRBK_ACC][HIT] = 0
	L2_cache_stats_breakdown[L1_WRBK_ACC][HIT_RESERVED] = 0
	L2_cache_stats_breakdown[L1_WRBK_ACC][MISS] = 0
	L2_cache_stats_breakdown[L1_WRBK_ACC][RESERVATION_FAIL] = 0
	L2_cache_stats_breakdown[L1_WRBK_ACC][SECTOR_MISS] = 0
	L2_cache_stats_breakdown[L1_WRBK_ACC][MSHR_HIT] = 0
	L2_cache_stats_breakdown[L2_WRBK_ACC][HIT] = 0
	L2_cache_stats_breakdown[L2_WRBK_ACC][HIT_RESERVED] = 0
	L2_cache_stats_breakdown[L2_WRBK_ACC][MISS] = 0
	L2_cache_stats_breakdown[L2_WRBK_ACC][RESERVATION_FAIL] = 0
	L2_cache_stats_breakdown[L2_WRBK_ACC][SECTOR_MISS] = 0
	L2_cache_stats_breakdown[L2_WRBK_ACC][MSHR_HIT] = 0
	L2_cache_stats_breakdown[INST_ACC_R][HIT] = 0
	L2_cache_stats_breakdown[INST_ACC_R][HIT_RESERVED] = 0
	L2_cache_stats_breakdown[INST_ACC_R][MISS] = 0
	L2_cache_stats_breakdown[INST_ACC_R][RESERVATION_FAIL] = 0
	L2_cache_stats_breakdown[INST_ACC_R][SECTOR_MISS] = 0
	L2_cache_stats_breakdown[INST_ACC_R][MSHR_HIT] = 0
	L2_cache_stats_breakdown[L1_WR_ALLOC_R][HIT] = 0
	L2_cache_stats_breakdown[L1_WR_ALLOC_R][HIT_RESERVED] = 0
	L2_cache_stats_breakdown[L1_WR_ALLOC_R][MISS] = 0
	L2_cache_stats_breakdown[L1_WR_ALLOC_R][RESERVATION_FAIL] = 0
	L2_cache_stats_breakdown[L1_WR_ALLOC_R][SECTOR_MISS] = 0
	L2_cache_stats_breakdown[L1_WR_ALLOC_R][MSHR_HIT] = 0
	L2_cache_stats_breakdown[L2_WR_ALLOC_R][HIT] = 0
	L2_cache_stats_breakdown[L2_WR_ALLOC_R][HIT_RESERVED] = 0
	L2_cache_stats_breakdown[L2_WR_ALLOC_R][MISS] = 0
	L2_cache_stats_breakdown[L2_WR_ALLOC_R][RESERVATION_FAIL] = 0
	L2_cache_stats_breakdown[L2_WR_ALLOC_R][SECTOR_MISS] = 0
	L2_cache_stats_breakdown[L2_WR_ALLOC_R][MSHR_HIT] = 0
	L2_cache_stats_breakdown[GLOBAL_ACC_R][TOTAL_ACCESS] = 4377132
	L2_cache_stats_breakdown[GLOBAL_ACC_W][TOTAL_ACCESS] = 110000
L2_total_cache_reservation_fail_breakdown:
L2_cache_data_port_util = 0.092
L2_cache_fill_port_util = 0.016

icnt_total_pkts_mem_to_simt=4249665
icnt_total_pkts_simt_to_mem=4249665
LD_mem_lat_dist  0 0 0 0 0 0 0 0 0 0 0 0 0 0 0 0 0 0 0 0 0 0 0 0 0 0 0
ST_mem_lat_dist  0 0 0 0 0 0 0 0 0 0 0 0 0 0 0 0 0 0 0 0 0 0 0 0 0 0 0
----------------------------Interconnect-DETAILS--------------------------------
Class 0:
Packet latency average = 11.8065
	minimum = 5
	maximum = 217
Network latency average = 11.7973
	minimum = 5
	maximum = 183
Slowest packet = 4621174
Flit latency average = 11.7973
	minimum = 5
	maximum = 183
Slowest flit = 4627539
Fragmentation average = 0
	minimum = 0
	maximum = 0
Injected packet rate average = 0.0947456
	minimum = 0 (at node 30)
	maximum = 0.411097 (at node 3)
Accepted packet rate average = 0.0947456
	minimum = 0 (at node 30)
	maximum = 0.411097 (at node 3)
Injected flit rate average = 0.0947456
	minimum = 0 (at node 30)
	maximum = 0.411097 (at node 3)
Accepted flit rate average= 0.0947456
	minimum = 0 (at node 30)
	maximum = 0.411097 (at node 3)
Injected packet length average = 1
Accepted packet length average = 1
Total in-flight flits = 0 (0 measured)
====== Overall Traffic Statistics ======
====== Traffic class 0 ======
Packet latency average = 13.6584 (2 samples)
	minimum = 5 (2 samples)
	maximum = 243 (2 samples)
Network latency average = 13.615 (2 samples)
	minimum = 5 (2 samples)
	maximum = 202.5 (2 samples)
Flit latency average = 13.615 (2 samples)
	minimum = 5 (2 samples)
	maximum = 202.5 (2 samples)
Fragmentation average = 0 (2 samples)
	minimum = 0 (2 samples)
	maximum = 0 (2 samples)
Injected packet rate average = 0.106239 (2 samples)
	minimum = 0 (2 samples)
	maximum = 0.461095 (2 samples)
Accepted packet rate average = 0.106239 (2 samples)
	minimum = 0 (2 samples)
	maximum = 0.461095 (2 samples)
Injected flit rate average = 0.106239 (2 samples)
	minimum = 0 (2 samples)
	maximum = 0.461095 (2 samples)
Accepted flit rate average = 0.106239 (2 samples)
	minimum = 0 (2 samples)
	maximum = 0.461095 (2 samples)
Injected packet size average = 1 (2 samples)
Accepted packet size average = 1 (2 samples)
Hops average = 1 (2 samples)
----------------------------END-of-Interconnect-DETAILS-------------------------


gpgpu_simulation_time = 0 days, 0 hrs, 59 min, 56 sec (3596 sec)
gpgpu_simulation_rate = 105496 (inst/sec)
gpgpu_simulation_rate = 428 (cycle/sec)
gpgpu_silicon_slowdown = 3310747x
GPGPU-Sim: synchronize waiting for inactive GPU simulation
GPGPU-Sim API: Stream Manager State
GPGPU-Sim: detected inactive GPU simulation thread
Time spent in different stages of GPU_CUDA KERNEL:
 0.000008000000 s,  0.000000448339 % : GPU: SET DEVICE / DRIVER INIT
 0.000001000000 s,  0.000000056042 % : GPU MEM: ALO
 3.048306941986 s,  0.170834332705 % : GPU MEM: COPY IN
1781.309326171875 s, 99.828788757324 % : GPU: KERNEL
 0.006759999786 s,  0.000378846365 % : GPU MEM: COPY OUT
 0.000000000000 s,  0.000000000000 % : GPU MEM: FRE
Total time:
1784.364379882812 s
> > > > > > > > > > 
GPGPU-Sim: *** exit detected ***
