Skipping setup_environment - already set
doing: export -n PTX_SIM_USE_PTX_FILE
doing: export LD_LIBRARY_PATH=/home/htran197/accel-sim-framework/gpu-simulator/../accelwattch_runs/pascal_ptx_sim/gpgpu-sim-builds/gpgpu-sim_git-commit-971dd69e8a6c355c8cc4c8bd997db51376ff520a_modified_1.0:/home/htran197/accel-sim-framework/gpu-simulator/gpgpu-sim/lib/gcc-8.4.0/cuda-11000/debug:/home/htran197/accel-sim-framework/gpu-simulator/gpgpu-sim/lib/gcc-8.4.0/cuda-11000/release::/usr/lib/x86_64-linux-gnu/slurm-wlm/:/usr/lib/x86_64-linux-gnu/slurm-wlm/
doing: cd /home/htran197/accel-sim-framework/gpu-simulator/../accelwattch_runs/pascal_ptx_sim/dct8x8/NO_ARGS/TITANX-Accelwattch_PTX_SIM
doing: export OPENCL_CURRENT_TEST_PATH=/home/htran197/accel-sim-framework/gpu-simulator/../accelwattch_runs/pascal_ptx_sim/dct8x8/NO_ARGS/TITANX-Accelwattch_PTX_SIM
doing: export OPENCL_REMOTE_GPU_HOST=REPLACE_REMOTE_HOST
doing 
doing: export PATH=/home/htran197/accel-sim-framework/gpu-simulator/gpgpu-sim/bin:/usr/local/cuda-11.0//bin:/home/htran197/anaconda3/envs/python2/bin:/home/htran197/anaconda3/bin:/usr/local/cuda-11.0/bin:/usr/local/cuda/bin:/home/htran197/.vscode-server/bin/1ad8d514439d5077d2b0b7ee64d2ce82a9308e5a/bin/remote-cli:/home/htran197/anaconda3/condabin:/home/htran197/accel-sim-framework/gpu-simulator/gpgpu-sim/bin:/usr/local/cuda-11.0/bin:/home/htran197/anaconda3/bin:/usr/local/cuda-11.0/bin:/usr/local/cuda/bin:/usr/local/sbin:/usr/local/bin:/usr/sbin:/usr/bin:/sbin:/bin:/usr/games:/usr/local/games:/snap/bin:/usr/local/bin
doing export CUDA_LAUNCH_BLOCKING=1
doing:  /home/htran197/accel-sim-framework/gpu-simulator/../util/accelwattch/accelwattch_benchmarks/validation/dct8x8 


        *** GPGPU-Sim Simulator Version 4.2.0  [build gpgpu-sim_git-commit-971dd69e8a6c355c8cc4c8bd997db51376ff520a_modified_1.0] ***


GPGPU-Sim PTX: simulation mode 0 (can change with PTX_SIM_MODE_FUNC environment variable:
               1=functional simulation only, 0=detailed performance simulator)
GPGPU-Sim: Configuration options:

-save_embedded_ptx                      0 # saves ptx files embedded in binary as <n>.ptx
-keep                                   0 # keep intermediate files created by GPGPU-Sim when interfacing with external programs
-gpgpu_ptx_save_converted_ptxplus                    0 # Saved converted ptxplus to a file
-gpgpu_occupancy_sm_number                   62 # The SM number to pass to ptxas when getting register usage for computing GPU occupancy. This parameter is required in the config.
-ptx_opcode_latency_int      4,13,4,5,145,32 # Opcode latencies for integers <ADD,MAX,MUL,MAD,DIV,SHFL>Default 1,1,19,25,145,32
-ptx_opcode_latency_fp          4,13,4,4,39 # Opcode latencies for single precision floating points <ADD,MAX,MUL,MAD,DIV>Default 1,1,1,1,30
-ptx_opcode_latency_dp         8,19,8,8,330 # Opcode latencies for double precision floating points <ADD,MAX,MUL,MAD,DIV>Default 8,8,8,8,335
-ptx_opcode_latency_sfu                   20 # Opcode latencies for SFU instructionsDefault 8
-ptx_opcode_latency_tesnor                   64 # Opcode latencies for Tensor instructionsDefault 64
-ptx_opcode_initiation_int          1,1,1,1,4,4 # Opcode initiation intervals for integers <ADD,MAX,MUL,MAD,DIV,SHFL>Default 1,1,4,4,32,4
-ptx_opcode_initiation_fp            1,2,1,1,4 # Opcode initiation intervals for single precision floating points <ADD,MAX,MUL,MAD,DIV>Default 1,1,1,1,5
-ptx_opcode_initiation_dp          8,8,8,8,130 # Opcode initiation intervals for double precision floating points <ADD,MAX,MUL,MAD,DIV>Default 8,8,8,8,130
-ptx_opcode_initiation_sfu                    4 # Opcode initiation intervals for sfu instructionsDefault 8
-ptx_opcode_initiation_tensor                   64 # Opcode initiation intervals for tensor instructionsDefault 64
-cdp_latency         7200,8000,100,12000,1600 # CDP API latency <cudaStreamCreateWithFlags, cudaGetParameterBufferV2_init_perWarp, cudaGetParameterBufferV2_perKernel, cudaLaunchDeviceV2_init_perWarp, cudaLaunchDevicV2_perKernel>Default 7200,8000,100,12000,1600
-network_mode                           1 # Interconnection network mode
-inter_config_file   config_pascal_islip.icnt # Interconnection network config file
-icnt_in_buffer_limit                   64 # in_buffer_limit
-icnt_out_buffer_limit                   64 # out_buffer_limit
-icnt_subnets                           2 # subnets
-icnt_arbiter_algo                      1 # arbiter_algo
-icnt_verbose                           0 # inct_verbose
-icnt_grant_cycles                      1 # grant_cycles
-gpgpu_ptx_use_cuobjdump                    1 # Use cuobjdump to extract ptx and sass from binaries
-gpgpu_experimental_lib_support                    0 # Try to extract code from cuda libraries [Broken because of unknown cudaGetExportTable]
-checkpoint_option                      0 #  checkpointing flag (0 = no checkpoint)
-checkpoint_kernel                      1 #  checkpointing during execution of which kernel (1- 1st kernel)
-checkpoint_CTA                         0 #  checkpointing after # of CTA (< less than total CTA)
-resume_option                          0 #  resume flag (0 = no resume)
-resume_kernel                          0 #  Resume from which kernel (1= 1st kernel)
-resume_CTA                             0 #  resume from which CTA 
-checkpoint_CTA_t                       0 #  resume from which CTA 
-checkpoint_insn_Y                      0 #  resume from which CTA 
-gpgpu_ptx_convert_to_ptxplus                    0 # Convert SASS (native ISA) to ptxplus and run ptxplus
-gpgpu_ptx_force_max_capability                   61 # Force maximum compute capability
-gpgpu_ptx_inst_debug_to_file                    0 # Dump executed instructions' debug information to file
-gpgpu_ptx_inst_debug_file       inst_debug.txt # Executed instructions' debug output file
-gpgpu_ptx_inst_debug_thread_uid                    1 # Thread UID for executed instructions' debug output
-gpgpu_simd_model                       1 # 1 = post-dominator
-gpgpu_shader_core_pipeline              2048:32 # shader core pipeline config, i.e., {<nthread>:<warpsize>}
-gpgpu_tex_cache:l1  N:16:128:24,L:R:m:N:L,T:128:4,128:2 # per-shader L1 texture cache  (READ-ONLY) config  {<nsets>:<bsize>:<assoc>,<rep>:<wr>:<alloc>:<wr_alloc>,<mshr>:<N>:<merge>,<mq>:<rf>}
-gpgpu_const_cache:l1 N:128:64:2,L:R:f:N:L,S:2:64,4 # per-shader L1 constant memory cache  (READ-ONLY) config  {<nsets>:<bsize>:<assoc>,<rep>:<wr>:<alloc>:<wr_alloc>,<mshr>:<N>:<merge>,<mq>} 
-gpgpu_cache:il1     N:8:128:4,L:R:f:N:L,S:2:48,4 # shader L1 instruction cache config  {<nsets>:<bsize>:<assoc>,<rep>:<wr>:<alloc>:<wr_alloc>,<mshr>:<N>:<merge>,<mq>} 
-gpgpu_cache:dl1     S:4:128:96,L:L:s:N:L,A:256:8,16:0,32 # per-shader L1 data cache config  {<nsets>:<bsize>:<assoc>,<rep>:<wr>:<alloc>:<wr_alloc>,<mshr>:<N>:<merge>,<mq> | none}
-gpgpu_l1_banks                         2 # The number of L1 cache banks
-gpgpu_l1_banks_byte_interleaving                   32 # l1 banks byte interleaving granularity
-gpgpu_l1_banks_hashing_function                    0 # l1 banks hashing function
-gpgpu_l1_latency                      82 # L1 Hit Latency
-gpgpu_smem_latency                    24 # smem Latency
-gpgpu_cache:dl1PrefL1 S:4:128:96,L:L:s:N:L,A:256:8,16:0,32 # per-shader L1 data cache config  {<nsets>:<bsize>:<assoc>,<rep>:<wr>:<alloc>:<wr_alloc>,<mshr>:<N>:<merge>,<mq> | none}
-gpgpu_cache:dl1PrefShared S:4:128:96,L:L:s:N:L,A:256:8,16:0,32 # per-shader L1 data cache config  {<nsets>:<bsize>:<assoc>,<rep>:<wr>:<alloc>:<wr_alloc>,<mshr>:<N>:<merge>,<mq> | none}
-gpgpu_gmem_skip_L1D                    1 # global memory access skip L1D cache (implements -Xptxas -dlcm=cg, default=no skip)
-gpgpu_perfect_mem                      0 # enable perfect memory mode (no cache miss)
-n_regfile_gating_group                    4 # group of lanes that should be read/written together)
-gpgpu_clock_gated_reg_file                    0 # enable clock gated reg file for power calculations
-gpgpu_clock_gated_lanes                    1 # enable clock gated lanes for power calculations
-gpgpu_shader_registers                65536 # Number of registers per shader core. Limits number of concurrent CTAs. (default 8192)
-gpgpu_registers_per_block                 8192 # Maximum number of registers per CTA. (default 8192)
-gpgpu_ignore_resources_limitation                    1 # gpgpu_ignore_resources_limitation (default 0)
-gpgpu_shader_cta                      32 # Maximum number of concurrent CTAs in shader (default 8)
-gpgpu_num_cta_barriers                   16 # Maximum number of named barriers per CTA (default 16)
-gpgpu_n_clusters                       6 # number of processing clusters
-gpgpu_n_cores_per_cluster                    1 # number of simd cores per cluster
-gpgpu_n_cluster_ejection_buffer_size                   32 # number of packets in ejection buffer
-gpgpu_n_ldst_response_buffer_size                    2 # number of response packets in ld/st unit ejection buffer
-gpgpu_shmem_per_block                49152 # Size of shared memory per thread block or CTA (default 48kB)
-gpgpu_shmem_size                   98304 # Size of shared memory per shader core (default 16kB)
-gpgpu_adaptive_cache_config                    0 # adaptive_cache_config
-gpgpu_shmem_sizeDefault                98304 # Size of shared memory per shader core (default 16kB)
-gpgpu_shmem_size_PrefL1                98304 # Size of shared memory per shader core (default 16kB)
-gpgpu_shmem_size_PrefShared                98304 # Size of shared memory per shader core (default 16kB)
-gpgpu_shmem_num_banks                   32 # Number of banks in the shared memory in each shader core (default 16)
-gpgpu_shmem_limited_broadcast                    0 # Limit shared memory to do one broadcast per cycle (default on)
-gpgpu_shmem_warp_parts                    1 # Number of portions a warp is divided into for shared memory bank conflict check 
-gpgpu_mem_unit_ports                    1 # The number of memory transactions allowed per core cycle
-gpgpu_shmem_warp_parts                    1 # Number of portions a warp is divided into for shared memory bank conflict check 
-gpgpu_warpdistro_shader                   -1 # Specify which shader core to collect the warp size distribution from
-gpgpu_warp_issue_shader                    0 # Specify which shader core to collect the warp issue distribution from
-gpgpu_local_mem_map                    1 # Mapping from local memory space address to simulated GPU physical address space (default = enabled)
-gpgpu_num_reg_banks                   16 # Number of register banks (default = 8)
-gpgpu_reg_bank_use_warp_id                    0 # Use warp ID in mapping registers to banks (default = off)
-gpgpu_sub_core_model                    1 # Sub Core Volta/Pascal model (default = off)
-gpgpu_enable_specialized_operand_collector                    0 # enable_specialized_operand_collector
-gpgpu_operand_collector_num_units_sp                    4 # number of collector units (default = 4)
-gpgpu_operand_collector_num_units_dp                    0 # number of collector units (default = 0)
-gpgpu_operand_collector_num_units_sfu                    4 # number of collector units (default = 4)
-gpgpu_operand_collector_num_units_int                    0 # number of collector units (default = 0)
-gpgpu_operand_collector_num_units_tensor_core                    4 # number of collector units (default = 4)
-gpgpu_operand_collector_num_units_mem                    2 # number of collector units (default = 2)
-gpgpu_operand_collector_num_units_gen                    8 # number of collector units (default = 0)
-gpgpu_operand_collector_num_in_ports_sp                    1 # number of collector unit in ports (default = 1)
-gpgpu_operand_collector_num_in_ports_dp                    0 # number of collector unit in ports (default = 0)
-gpgpu_operand_collector_num_in_ports_sfu                    1 # number of collector unit in ports (default = 1)
-gpgpu_operand_collector_num_in_ports_int                    0 # number of collector unit in ports (default = 0)
-gpgpu_operand_collector_num_in_ports_tensor_core                    1 # number of collector unit in ports (default = 1)
-gpgpu_operand_collector_num_in_ports_mem                    1 # number of collector unit in ports (default = 1)
-gpgpu_operand_collector_num_in_ports_gen                    8 # number of collector unit in ports (default = 0)
-gpgpu_operand_collector_num_out_ports_sp                    1 # number of collector unit in ports (default = 1)
-gpgpu_operand_collector_num_out_ports_dp                    0 # number of collector unit in ports (default = 0)
-gpgpu_operand_collector_num_out_ports_sfu                    1 # number of collector unit in ports (default = 1)
-gpgpu_operand_collector_num_out_ports_int                    0 # number of collector unit in ports (default = 0)
-gpgpu_operand_collector_num_out_ports_tensor_core                    1 # number of collector unit in ports (default = 1)
-gpgpu_operand_collector_num_out_ports_mem                    1 # number of collector unit in ports (default = 1)
-gpgpu_operand_collector_num_out_ports_gen                    8 # number of collector unit in ports (default = 0)
-gpgpu_coalesce_arch                   61 # Coalescing arch (GT200 = 13, Fermi = 20)
-gpgpu_num_sched_per_core                    4 # Number of warp schedulers per core
-gpgpu_max_insn_issue_per_warp                    2 # Max number of instructions that can be issued per warp in one cycle by scheduler (either 1 or 2)
-gpgpu_dual_issue_diff_exec_units                    1 # should dual issue use two different execution unit resources (Default = 1)
-gpgpu_simt_core_sim_order                    1 # Select the simulation order of cores in a cluster (0=Fix, 1=Round-Robin)
-gpgpu_pipeline_widths 4,0,0,4,4,4,0,0,4,4,8 # Pipeline widths ID_OC_SP,ID_OC_DP,ID_OC_INT,ID_OC_SFU,ID_OC_MEM,OC_EX_SP,OC_EX_DP,OC_EX_INT,OC_EX_SFU,OC_EX_MEM,EX_WB,ID_OC_TENSOR_CORE,OC_EX_TENSOR_CORE
-gpgpu_tensor_core_avail                    0 # Tensor Core Available (default=0)
-gpgpu_num_sp_units                     4 # Number of SP units (default=1)
-gpgpu_num_dp_units                     0 # Number of DP units (default=0)
-gpgpu_num_int_units                    0 # Number of INT units (default=0)
-gpgpu_num_sfu_units                    4 # Number of SF units (default=1)
-gpgpu_num_tensor_core_units                    0 # Number of tensor_core units (default=1)
-gpgpu_num_mem_units                    1 # Number if ldst units (default=1) WARNING: not hooked up to anything
-gpgpu_scheduler                      gto # Scheduler configuration: < lrr | gto | two_level_active > If two_level_active:<num_active_warps>:<inner_prioritization>:<outer_prioritization>For complete list of prioritization values see shader.h enum scheduler_prioritization_typeDefault: gto
-gpgpu_concurrent_kernel_sm                    0 # Support concurrent kernels on a SM (default = disabled)
-gpgpu_perfect_inst_const_cache                    1 # perfect inst and const cache mode, so all inst and const hits in the cache(default = disabled)
-gpgpu_inst_fetch_throughput                    8 # the number of fetched intruction per warp each cycle
-gpgpu_reg_file_port_throughput                    2 # the number ports of the register file
-specialized_unit_1         0,4,4,4,4,BRA # specialized unit config {<enabled>,<num_units>:<latency>:<initiation>,<ID_OC_SPEC>:<OC_EX_SPEC>,<NAME>}
-specialized_unit_2         0,4,4,4,4,BRA # specialized unit config {<enabled>,<num_units>:<latency>:<initiation>,<ID_OC_SPEC>:<OC_EX_SPEC>,<NAME>}
-specialized_unit_3         0,4,4,4,4,BRA # specialized unit config {<enabled>,<num_units>:<latency>:<initiation>,<ID_OC_SPEC>:<OC_EX_SPEC>,<NAME>}
-specialized_unit_4         0,4,4,4,4,BRA # specialized unit config {<enabled>,<num_units>:<latency>:<initiation>,<ID_OC_SPEC>:<OC_EX_SPEC>,<NAME>}
-specialized_unit_5         0,4,4,4,4,BRA # specialized unit config {<enabled>,<num_units>:<latency>:<initiation>,<ID_OC_SPEC>:<OC_EX_SPEC>,<NAME>}
-specialized_unit_6         0,4,4,4,4,BRA # specialized unit config {<enabled>,<num_units>:<latency>:<initiation>,<ID_OC_SPEC>:<OC_EX_SPEC>,<NAME>}
-specialized_unit_7         0,4,4,4,4,BRA # specialized unit config {<enabled>,<num_units>:<latency>:<initiation>,<ID_OC_SPEC>:<OC_EX_SPEC>,<NAME>}
-specialized_unit_8         0,4,4,4,4,BRA # specialized unit config {<enabled>,<num_units>:<latency>:<initiation>,<ID_OC_SPEC>:<OC_EX_SPEC>,<NAME>}
-gpgpu_perf_sim_memcpy                    1 # Fill the L2 cache on memcpy
-gpgpu_simple_dram_model                    0 # simple_dram_model with fixed latency and BW
-gpgpu_dram_scheduler                    1 # 0 = fifo, 1 = FR-FCFS (defaul)
-gpgpu_dram_partition_queues          32:32:32:32 # i2$:$2d:d2$:$2i
-l2_ideal                               0 # Use a ideal L2 cache that always hit
-gpgpu_cache:dl2     S:64:128:16,L:B:m:L:P,A:256:64,16:0,32 # unified banked L2 data cache config  {<nsets>:<bsize>:<assoc>,<rep>:<wr>:<alloc>:<wr_alloc>,<mshr>:<N>:<merge>,<mq>}
-gpgpu_cache:dl2_texture_only                    0 # L2 cache used for texture only
-gpgpu_n_mem                           12 # number of memory modules (e.g. memory controllers) in gpu
-gpgpu_n_sub_partition_per_mchannel                    2 # number of memory subpartition in each memory module
-gpgpu_n_mem_per_ctrlr                    1 # number of memory chips per memory controller
-gpgpu_memlatency_stat                   14 # track and display latency statistics 0x2 enables MC, 0x4 enables queue logs
-gpgpu_frfcfs_dram_sched_queue_size                   64 # 0 = unlimited (default); # entries per chip
-gpgpu_dram_return_queue_size                   64 # 0 = unlimited (default); # entries per chip
-gpgpu_dram_buswidth                    4 # default = 4 bytes (8 bytes per cycle at DDR)
-gpgpu_dram_burst_length                    8 # Burst length of each DRAM request (default = 4 data bus cycle)
-dram_data_command_freq_ratio                    4 # Frequency ratio between DRAM data bus and command bus (default = 2 times, i.e. DDR)
-gpgpu_dram_timing_opt nbk=16:CCD=2:RRD=8:RCD=16:RAS=37:RP=16:RC=52: CL=16:WL=6:CDLR=7:WR=16:nbkgrp=4:CCDL=4:RTPL=3 # DRAM timing parameters = {nbk:tCCD:tRRD:tRCD:tRAS:tRP:tRC:CL:WL:tCDLR:tWR:nbkgrp:tCCDL:tRTPL}
-gpgpu_l2_rop_latency                  120 # ROP queue latency (default 85)
-dram_latency                         100 # DRAM latency (default 30)
-dram_dual_bus_interface                    0 # dual_bus_interface (default = 0) 
-dram_bnk_indexing_policy                    0 # dram_bnk_indexing_policy (0 = normal indexing, 1 = Xoring with the higher bits) (Default = 0)
-dram_bnkgrp_indexing_policy                    1 # dram_bnkgrp_indexing_policy (0 = take higher bits, 1 = take lower bits) (Default = 0)
-dram_seperate_write_queue_enable                    0 # Seperate_Write_Queue_Enable
-dram_write_queue_size             32:28:16 # Write_Queue_Size
-dram_elimnate_rw_turnaround                    0 # elimnate_rw_turnaround i.e set tWTR and tRTW = 0
-icnt_flit_size                        40 # icnt_flit_size
-gpgpu_mem_addr_mapping dramid@8;00000000.00000000.00000000.00000000.0000RRRR.RRRRRRRR.RBBBCCCC.BCCSSSSS # mapping memory address to dram model {dramid@<start bit>;<memory address map>}
-gpgpu_mem_addr_test                    0 # run sweep test to check address mapping for aliased address
-gpgpu_mem_address_mask                    1 # 0 = old addressing mask, 1 = new addressing mask, 2 = new add. mask + flipped bank sel and chip sel bits
-gpgpu_memory_partition_indexing                    4 # 0 = no indexing, 1 = bitwise xoring, 2 = IPoly, 3 = custom indexing
-accelwattch_xml_file accelwattch_ptx_sim.xml # AccelWattch XML file
-power_simulation_enabled                    1 # Turn on power simulator (1=On, 0=Off)
-power_per_cycle_dump                    0 # Dump detailed power output each cycle
-hw_perf_file_name            hw_perf.csv # Hardware Performance Statistics file
-hw_perf_bench_name                       # Kernel Name in Hardware Performance Statistics file
-power_simulation_mode                    0 # Switch performance counter input for power simulation (0=Sim, 1=HW, 2=HW-Sim Hybrid)
-dvfs_enabled                           0 # Turn on DVFS for power model
-aggregate_power_stats                    0 # Accumulate power across all kernels
-accelwattch_hybrid_perfsim_L1_RH                    0 # Get L1 Read Hits for Accelwattch-Hybrid from Accel-Sim
-accelwattch_hybrid_perfsim_L1_RM                    0 # Get L1 Read Misses for Accelwattch-Hybrid from Accel-Sim
-accelwattch_hybrid_perfsim_L1_WH                    0 # Get L1 Write Hits for Accelwattch-Hybrid from Accel-Sim
-accelwattch_hybrid_perfsim_L1_WM                    0 # Get L1 Write Misses for Accelwattch-Hybrid from Accel-Sim
-accelwattch_hybrid_perfsim_L2_RH                    0 # Get L2 Read Hits for Accelwattch-Hybrid from Accel-Sim
-accelwattch_hybrid_perfsim_L2_RM                    0 # Get L2 Read Misses for Accelwattch-Hybrid from Accel-Sim
-accelwattch_hybrid_perfsim_L2_WH                    0 # Get L2 Write Hits for Accelwattch-Hybrid from Accel-Sim
-accelwattch_hybrid_perfsim_L2_WM                    0 # Get L2 Write Misses for Accelwattch-Hybrid from Accel-Sim
-accelwattch_hybrid_perfsim_CC_ACC                    0 # Get Constant Cache Acesses for Accelwattch-Hybrid from Accel-Sim
-accelwattch_hybrid_perfsim_SHARED_ACC                    0 # Get Shared Memory Acesses for Accelwattch-Hybrid from Accel-Sim
-accelwattch_hybrid_perfsim_DRAM_RD                    0 # Get DRAM Reads for Accelwattch-Hybrid from Accel-Sim
-accelwattch_hybrid_perfsim_DRAM_WR                    0 # Get DRAM Writes for Accelwattch-Hybrid from Accel-Sim
-accelwattch_hybrid_perfsim_NOC                    0 # Get Interconnect Acesses for Accelwattch-Hybrid from Accel-Sim
-accelwattch_hybrid_perfsim_PIPE_DUTY                    0 # Get Pipeline Duty Cycle Acesses for Accelwattch-Hybrid from Accel-Sim
-accelwattch_hybrid_perfsim_NUM_SM_IDLE                    0 # Get Number of Idle SMs for Accelwattch-Hybrid from Accel-Sim
-accelwattch_hybrid_perfsim_CYCLES                    0 # Get Executed Cycles for Accelwattch-Hybrid from Accel-Sim
-accelwattch_hybrid_perfsim_VOLTAGE                    0 # Get Chip Voltage for Accelwattch-Hybrid from Accel-Sim
-power_trace_enabled                    0 # produce a file for the power trace (1=On, 0=Off)
-power_trace_zlevel                     6 # Compression level of the power trace output log (0=no comp, 9=highest)
-steady_power_levels_enabled                    0 # produce a file for the steady power levels (1=On, 0=Off)
-steady_state_definition                  8:4 # allowed deviation:number of samples
-gpgpu_max_cycle                        0 # terminates gpu simulation early (0 = no limit)
-gpgpu_max_insn                         0 # terminates gpu simulation early (0 = no limit)
-gpgpu_max_cta                          0 # terminates gpu simulation early (0 = no limit)
-gpgpu_max_completed_cta                    0 # terminates gpu simulation early (0 = no limit)
-gpgpu_runtime_stat                   500 # display runtime statistics such as dram utilization {<freq>:<flag>}
-liveness_message_freq                    1 # Minimum number of seconds between simulation liveness messages (0 = always print)
-gpgpu_compute_capability_major                    6 # Major compute capability version number
-gpgpu_compute_capability_minor                    1 # Minor compute capability version number
-gpgpu_flush_l1_cache                    1 # Flush L1 cache at the end of each kernel call
-gpgpu_flush_l2_cache                    0 # Flush L2 cache at the end of each kernel call
-gpgpu_deadlock_detect                    1 # Stop the simulation at deadlock (1=on (default), 0=off)
-gpgpu_ptx_instruction_classification                    0 # if enabled will classify ptx instruction types per kernel (Max 255 kernels now)
-gpgpu_ptx_sim_mode                     0 # Select between Performance (default) or Functional simulation (1)
-gpgpu_clock_domains 1417.0:1417.0:1417.0:2500.0 # Clock Domain Frequencies in MhZ {<Core Clock>:<ICNT Clock>:<L2 Clock>:<DRAM Clock>}
-gpgpu_max_concurrent_kernel                    8 # maximum kernels that can run concurrently on GPU
-gpgpu_cflog_interval                    0 # Interval between each snapshot in control flow logger
-visualizer_enabled                     0 # Turn on visualizer output (1=On, 0=Off)
-visualizer_outputfile                 NULL # Specifies the output log file for visualizer
-visualizer_zlevel                      6 # Compression level of the visualizer output log (0=no comp, 9=highest)
-gpgpu_stack_size_limit                 1024 # GPU thread stack size
-gpgpu_heap_size_limit              8388608 # GPU malloc heap size 
-gpgpu_runtime_sync_depth_limit                    2 # GPU device runtime synchronize depth
-gpgpu_runtime_pending_launch_count_limit                 2048 # GPU device runtime pending launch count
-trace_enabled                          0 # Turn on traces
-trace_components                    none # comma seperated list of traces to enable. Complete list found in trace_streams.tup. Default none
-trace_sampling_core                    0 # The core which is printed using CORE_DPRINTF. Default 0
-trace_sampling_memory_partition                   -1 # The memory partition which is printed using MEMPART_DPRINTF. Default -1 (i.e. all)
-enable_ptx_file_line_stats                    1 # Turn on PTX source line statistic profiling. (1 = On)
-ptx_line_stats_filename gpgpu_inst_stats.txt # Output file for PTX source line statistics.
-gpgpu_kernel_launch_latency                 5000 # Kernel launch latency in cycles. Default: 0
-gpgpu_cdp_enabled                      0 # Turn on CDP
-gpgpu_TB_launch_latency                    0 # thread block launch latency in cycles. Default: 0
DRAM Timing Options:
nbk                                    16 # number of banks
CCD                                     2 # column to column delay
RRD                                     8 # minimal delay between activation of rows in different banks
RCD                                    16 # row to column delay
RAS                                    37 # time needed to activate row
RP                                     16 # time needed to precharge (deactivate) row
RC                                     52 # row cycle time
CDLR                                    7 # switching from write to read (changes tWTR)
WR                                     16 # last data-in to row precharge
CL                                     16 # CAS latency
WL                                      6 # Write latency
nbkgrp                                  4 # number of bank groups
CCDL                                    4 # column to column delay between accesses to different bank groups
RTPL                                    3 # read to precharge delay between accesses to different bank groups
Total number of memory sub partition = 24
addr_dec_mask[CHIP]  = 0000000000000000 	high:64 low:0
addr_dec_mask[BK]    = 0000000000007080 	high:15 low:7
addr_dec_mask[ROW]   = 000000000fff8000 	high:28 low:15
addr_dec_mask[COL]   = 0000000000000f7f 	high:12 low:0
addr_dec_mask[BURST] = 000000000000001f 	high:5 low:0
sub_partition_id_mask = 0000000000000080
GPGPU-Sim uArch: clock freqs: 1417000000.000000:1417000000.000000:1417000000.000000:2500000000.000000
GPGPU-Sim uArch: clock periods: 0.00000000070571630205:0.00000000070571630205:0.00000000070571630205:0.00000000040000000000
*** Initializing Memory Statistics ***
GPGPU-Sim uArch: interconnect node map (shaderID+MemID to icntID)
GPGPU-Sim uArch: Memory nodes ID start from index: 6
GPGPU-Sim uArch:    0   1   2   3   4   5   6
GPGPU-Sim uArch:    7   8   9  10  11  12  13
GPGPU-Sim uArch:   14  15  16  17  18  19  20
GPGPU-Sim uArch:   21  22  23  24  25  26  27
GPGPU-Sim uArch:   28  29  30  31  32  33  34
GPGPU-Sim uArch:   35  36  37  38  39  40  41
GPGPU-Sim uArch:   42  43  44  45  46  47  48
GPGPU-Sim uArch:   49  50  51
GPGPU-Sim uArch: interconnect node reverse map (icntID to shaderID+MemID)
GPGPU-Sim uArch: Memory nodes start from ID: 6
GPGPU-Sim uArch:    0   1   2   3   4   5   6
GPGPU-Sim uArch:    7   8   9  10  11  12  13
GPGPU-Sim uArch:   14  15  16  17  18  19  20
GPGPU-Sim uArch:   21  22  23  24  25  26  27
GPGPU-Sim uArch:   28  29  30  31  32  33  34
GPGPU-Sim uArch:   35  36  37  38  39  40  41
GPGPU-Sim uArch:   42  43  44  45  46  47  48
GPGPU-Sim uArch:   49  50  51
60e19ff2d48f143c46a3c8192f43bb8e  /home/htran197/accel-sim-framework/util/accelwattch/accelwattch_benchmarks/validation/dct8x8
Extracting PTX file and ptxas options    1: dct8x8.1.sm_61.ptx -arch=sm_61
Extracting PTX file and ptxas options    2: dct8x8.2.sm_70.ptx -arch=sm_70
Extracting PTX file and ptxas options    3: dct8x8.3.sm_75.ptx -arch=sm_75
GPGPU-Sim uArch: performance model initialization complete.
self exe links to: /home/htran197/accel-sim-framework/util/accelwattch/accelwattch_benchmarks/validation/dct8x8
self exe links to: /home/htran197/accel-sim-framework/util/accelwattch/accelwattch_benchmarks/validation/dct8x8
11.0
GPGPU-Sim PTX: __cudaRegisterFatBinary, fat_cubin_handle = 1, filename=default
self exe links to: /home/htran197/accel-sim-framework/util/accelwattch/accelwattch_benchmarks/validation/dct8x8
Running md5sum using "md5sum /home/htran197/accel-sim-framework/util/accelwattch/accelwattch_benchmarks/validation/dct8x8 "
self exe links to: /home/htran197/accel-sim-framework/util/accelwattch/accelwattch_benchmarks/validation/dct8x8
Extracting specific PTX file named dct8x8.1.sm_61.ptx 
Extracting specific PTX file named dct8x8.2.sm_70.ptx 
Extracting specific PTX file named dct8x8.3.sm_75.ptx 
GPGPU-Sim PTX: __cudaRegisterFunction _Z27CUDAkernelQuantizationShortPsi : hostFun 0x0x561bebd53c4a, fat_cubin_handle = 1
GPGPU-Sim PTX: Parsing dct8x8.1.sm_61.ptx
GPGPU-Sim PTX: allocating global region for "TexSrc" from 0x100 to 0x104 (global memory space)
GPGPU-Sim PTX: allocating constant region for "DCTv8matrix" from 0x180 to 0x280 (global memory space) 1
GPGPU-Sim PTX: allocating shared region for "CurBlockLocal1" from 0x0 to 0x100 (shared memory space)
GPGPU-Sim PTX: allocating shared region for "CurBlockLocal2" from 0x100 to 0x200 (shared memory space)
GPGPU-Sim PTX: allocating constant region for "Q" from 0x280 to 0x300 (global memory space) 2
GPGPU-Sim PTX: allocating global region for "_ZZN72_INTERNAL_52_tmpxft_0000365b_00000000_8_dct8x8_compute_75_cpp1_ii_TexSrc18cooperative_groups4__v17details17_binary_partitionINS1_15coalesced_groupEEES4_RKT_bE8fullMask" from 0x300 to 0x304 (global memory space)
GPGPU-Sim PTX: instruction assembly for function '_Z14CUDAkernel1DCTPfiii'...   done.
GPGPU-Sim PTX: instruction assembly for function '_Z15CUDAkernel1IDCTPfiii'...   done.
GPGPU-Sim PTX: allocating shared region for "_ZZ14CUDAkernel2DCTPfS_iE5block" from 0x200 to 0xa40 (shared memory space)
GPGPU-Sim PTX: instruction assembly for function '_Z14CUDAkernel2DCTPfS_i'...   done.
GPGPU-Sim PTX: allocating shared region for "_ZZ15CUDAkernel2IDCTPfS_iE5block" from 0x200 to 0xa40 (shared memory space)
GPGPU-Sim PTX: instruction assembly for function '_Z15CUDAkernel2IDCTPfS_i'...   done.
GPGPU-Sim PTX: allocating shared region for "_ZZ18CUDAkernelShortDCTPsiE5block" from 0x200 to 0xa80 (shared memory space)
GPGPU-Sim PTX: instruction assembly for function '_Z18CUDAkernelShortDCTPsi'...   done.
GPGPU-Sim PTX: allocating shared region for "_ZZ19CUDAkernelShortIDCTPsiE5block" from 0x200 to 0xa80 (shared memory space)
GPGPU-Sim PTX: instruction assembly for function '_Z19CUDAkernelShortIDCTPsi'...   done.
GPGPU-Sim PTX: instruction assembly for function '_Z27CUDAkernelQuantizationFloatPfi'...   done.
GPGPU-Sim PTX: instruction assembly for function '_Z27CUDAkernelQuantizationShortPsi'...   done.
GPGPU-Sim PTX: finished parsing EMBEDDED .ptx file dct8x8.1.sm_61.ptx
GPGPU-Sim PTX: Parsing dct8x8.2.sm_70.ptx
GPGPU-Sim PTX: Warning TexSrc was declared previous at dct8x8.1.sm_61.ptx:14 skipping new declaration
GPGPU-Sim PTX: Warning DCTv8matrix was declared previous at dct8x8.1.sm_61.ptx:15 skipping new declaration
GPGPU-Sim PTX: Warning CurBlockLocal1 was declared previous at dct8x8.1.sm_61.ptx:16 skipping new declaration
GPGPU-Sim PTX: Warning CurBlockLocal2 was declared previous at dct8x8.1.sm_61.ptx:17 skipping new declaration
GPGPU-Sim PTX: Warning Q was declared previous at dct8x8.1.sm_61.ptx:22 skipping new declaration
GPGPU-Sim PTX: Warning _ZZN72_INTERNAL_52_tmpxft_0000365b_00000000_8_dct8x8_compute_75_cpp1_ii_TexSrc18cooperative_groups4__v17details17_binary_partitionINS1_15coalesced_groupEEES4_RKT_bE8fullMask was declared previous at dct8x8.1.sm_61.ptx:23 skipping new declaration
GPGPU-Sim PTX: Warning %f0 was declared previous at dct8x8.1.sm_61.ptx:32 skipping new declaration
GPGPU-Sim PTX: Warning %f1 was declared previous at dct8x8.1.sm_61.ptx:32 skipping new declaration
GPGPU-Sim PTX: Warning %f2 was declared previous at dct8x8.1.sm_61.ptx:32 skipping new declaration
GPGPU-Sim PTX: Warning %f3 was declared previous at dct8x8.1.sm_61.ptx:32 skipping new declaration
GPGPU-Sim PTX: Warning %f4 was declared previous at dct8x8.1.sm_61.ptx:32 skipping new declaration
GPGPU-Sim PTX: Warning %f5 was declared previous at dct8x8.1.sm_61.ptx:32 skipping new declaration
GPGPU-Sim PTX: Warning %f6 was declared previous at dct8x8.1.sm_61.ptx:32 skipping new declaration
GPGPU-Sim PTX: Warning %f7 was declared previous at dct8x8.1.sm_61.ptx:32 skipping new declaration
GPGPU-Sim PTX: Warning %f8 was declared previous at dct8x8.1.sm_61.ptx:32 skipping new declaration
GPGPU-Sim PTX: Warning %f9 was declared previous at dct8x8.1.sm_61.ptx:32 skipping new declaration
GPGPU-Sim PTX: Warning %f10 was declared previous at dct8x8.1.sm_61.ptx:32 skipping new declaration
GPGPU-Sim PTX: Warning %f11 was declared previous at dct8x8.1.sm_61.ptx:32 skipping new declaration
GPGPU-Sim PTX: Warning %f12 was declared previous at dct8x8.1.sm_61.ptx:32 skipping new declaration
GPGPU-Sim PTX: Warning %f13 was declared previous at dct8x8.1.sm_61.ptx:32 skipping new declaration
GPGPU-Sim PTX: Warning %f14 was declared previous at dct8x8.1.sm_61.ptx:32 skipping new declaration
GPGPU-Sim PTX: Warning %f15 was declared previous at dct8x8.1.sm_61.ptx:32 skipping new declaration
GPGPU-Sim PTX: Warning %f16 was declared previous at dct8x8.1.sm_61.ptx:32 skipping new declaration
GPGPU-Sim PTX: Warning %f17 was declared previous at dct8x8.1.sm_61.ptx:32 skipping new declaration
GPGPU-Sim PTX: Warning %f18 was declared previous at dct8x8.1.sm_61.ptx:32 skipping new declaration
GPGPU-Sim PTX: Warning %f19 was declared previous at dct8x8.1.sm_61.ptx:32 skipping new declaration
GPGPU-Sim PTX: Warning %f20 was declared previous at dct8x8.1.sm_61.ptx:32 skipping new declaration
GPGPU-Sim PTX: Warning %f21 was declared previous at dct8x8.1.sm_61.ptx:32 skipping new declaration
GPGPU-Sim PTX: Warning %f22 was declared previous at dct8x8.1.sm_61.ptx:32 skipping new declaration
GPGPU-Sim PTX: Warning %f23 was declared previous at dct8x8.1.sm_61.ptx:32 skipping new declaration
GPGPU-Sim PTX: Warning %f24 was declared previous at dct8x8.1.sm_61.ptx:32 skipping new declaration
GPGPU-Sim PTX: Warning %f25 was declared previous at dct8x8.1.sm_61.ptx:32 skipping new declaration
GPGPU-Sim PTX: Warning %f26 was declared previous at dct8x8.1.sm_61.ptx:32 skipping new declaration
GPGPU-Sim PTX: Warning %f27 was declared previous at dct8x8.1.sm_61.ptx:32 skipping new declaration
GPGPU-Sim PTX: Warning %f28 was declared previous at dct8x8.1.sm_61.ptx:32 skipping new declaration
GPGPU-Sim PTX: Warning %f29 was declared previous at dct8x8.1.sm_61.ptx:32 skipping new declaration
GPGPU-Sim PTX: Warning %f30 was declared previous at dct8x8.1.sm_61.ptx:32 skipping new declaration
GPGPU-Sim PTX: Warning %f31 was declared previous at dct8x8.1.sm_61.ptx:32 skipping new declaration
GPGPU-Sim PTX: Warning %f32 was declared previous at dct8x8.1.sm_61.ptx:32 skipping new declaration
GPGPU-Sim PTX: Warning %f33 was declared previous at dct8x8.1.sm_61.ptx:32 skipping new declaration
GPGPU-Sim PTX: Warning %f34 was declared previous at dct8x8.1.sm_61.ptx:32 skipping new declaration
GPGPU-Sim PTX: Warning %f35 was declared previous at dct8x8.1.sm_61.ptx:32 skipping new declaration
GPGPU-Sim PTX: Warning %f36 was declared previous at dct8x8.1.sm_61.ptx:32 skipping new declaration
GPGPU-Sim PTX: Warning %f37 was declared previous at dct8x8.1.sm_61.ptx:32 skipping new declaration
GPGPU-Sim PTX: Warning %f38 was declared previous at dct8x8.1.sm_61.ptx:32 skipping new declaration
GPGPU-Sim PTX: Warning %f39 was declared previous at dct8x8.1.sm_61.ptx:32 skipping new declaration
GPGPU-Sim PTX: Warning %f40 was declared previous at dct8x8.1.sm_61.ptx:32 skipping new declaration
GPGPU-Sim PTX: Warning %f41 was declared previous at dct8x8.1.sm_61.ptx:32 skipping new declaration
GPGPU-Sim PTX: Warning %f42 was declared previous at dct8x8.1.sm_61.ptx:32 skipping new declaration
GPGPU-Sim PTX: Warning %f43 was declared previous at dct8x8.1.sm_61.ptx:32 skipping new declaration
GPGPU-Sim PTX: Warning %f44 was declared previous at dct8x8.1.sm_61.ptx:32 skipping new declaration
GPGPU-Sim PTX: Warning %f45 was declared previous at dct8x8.1.sm_61.ptx:32 skipping new declaration
GPGPU-Sim PTX: Warning %f46 was declared previous at dct8x8.1.sm_61.ptx:32 skipping new declaration
GPGPU-Sim PTX: Warning %f47 was declared previous at dct8x8.1.sm_61.ptx:32 skipping new declaration
GPGPU-Sim PTX: Warning %f48 was declared previous at dct8x8.1.sm_61.ptx:32 skipping new declaration
GPGPU-Sim PTX: Warning %f49 was declared previous at dct8x8.1.sm_61.ptx:32 skipping new declaration
GPGPU-Sim PTX: Warning %f50 was declared previous at dct8x8.1.sm_61.ptx:32 skipping new declaration
GPGPU-Sim PTX: Warning %f51 was declared previous at dct8x8.1.sm_61.ptx:32 skipping new declaration
GPGPU-Sim PTX: Warning %f52 was declared previous at dct8x8.1.sm_61.ptx:32 skipping new declaration
GPGPU-Sim PTX: Warning %f53 was declared previous at dct8x8.1.sm_61.ptx:32 skipping new declaration
GPGPU-Sim PTX: Warning %f54 was declared previous at dct8x8.1.sm_61.ptx:32 skipping new declaration
GPGPU-Sim PTX: Warning %f55 was declared previous at dct8x8.1.sm_61.ptx:32 skipping new declaration
GPGPU-Sim PTX: Warning %f56 was declared previous at dct8x8.1.sm_61.ptx:32 skipping new declaration
GPGPU-Sim PTX: Warning %f57 was declared previous at dct8x8.1.sm_61.ptx:32 skipping new declaration
GPGPU-Sim PTX: Warning %r0 was declared previous at dct8x8.1.sm_61.ptx:33 skipping new declaration
GPGPU-Sim PTX: Warning %r1 was declared previous at dct8x8.1.sm_61.ptx:33 skipping new declaration
GPGPU-Sim PTX: Warning %r2 was declared previous at dct8x8.1.sm_61.ptx:33 skipping new declaration
GPGPU-Sim PTX: Warning %r3 was declared previous at dct8x8.1.sm_61.ptx:33 skipping new declaration
GPGPU-Sim PTX: Warning %r4 was declared previous at dct8x8.1.sm_61.ptx:33 skipping new declaration
GPGPU-Sim PTX: Warning %r5 was declared previous at dct8x8.1.sm_61.ptx:33 skipping new declaration
GPGPU-Sim PTX: Warning %r6 was declared previous at dct8x8.1.sm_61.ptx:33 skipping new declaration
GPGPU-Sim PTX: Warning %r7 was declared previous at dct8x8.1.sm_61.ptx:33 skipping new declaration
GPGPU-Sim PTX: Warning %r8 was declared previous at dct8x8.1.sm_61.ptx:33 skipping new declaration
GPGPU-Sim PTX: Warning %r9 was declared previous at dct8x8.1.sm_61.ptx:33 skipping new declaration
GPGPU-Sim PTX: Warning %r10 was declared previous at dct8x8.1.sm_61.ptx:33 skipping new declaration
GPGPU-Sim PTX: Warning %r11 was declared previous at dct8x8.1.sm_61.ptx:33 skipping new declaration
GPGPU-Sim PTX: Warning %r12 was declared previous at dct8x8.1.sm_61.ptx:33 skipping new declaration
GPGPU-Sim PTX: Warning %r13 was declared previous at dct8x8.1.sm_61.ptx:33 skipping new declaration
GPGPU-Sim PTX: Warning %r14 was declared previous at dct8x8.1.sm_61.ptx:33 skipping new declaration
GPGPU-Sim PTX: Warning %r15 was declared previous at dct8x8.1.sm_61.ptx:33 skipping new declaration
GPGPU-Sim PTX: Warning %r16 was declared previous at dct8x8.1.sm_61.ptx:33 skipping new declaration
GPGPU-Sim PTX: Warning %r17 was declared previous at dct8x8.1.sm_61.ptx:33 skipping new declaration
GPGPU-Sim PTX: Warning %r18 was declared previous at dct8x8.1.sm_61.ptx:33 skipping new declaration
GPGPU-Sim PTX: Warning %r19 was declared previous at dct8x8.1.sm_61.ptx:33 skipping new declaration
GPGPU-Sim PTX: Warning %r20 was declared previous at dct8x8.1.sm_61.ptx:33 skipping new declaration
GPGPU-Sim PTX: Warning %r21 was declared previous at dct8x8.1.sm_61.ptx:33 skipping new declaration
GPGPU-Sim PTX: Warning %r22 was declared previous at dct8x8.1.sm_61.ptx:33 skipping new declaration
GPGPU-Sim PTX: Warning %r23 was declared previous at dct8x8.1.sm_61.ptx:33 skipping new declaration
GPGPU-Sim PTX: Warning %r24 was declared previous at dct8x8.1.sm_61.ptx:33 skipping new declaration
GPGPU-Sim PTX: Warning %r25 was declared previous at dct8x8.1.sm_61.ptx:33 skipping new declaration
GPGPU-Sim PTX: Warning %r26 was declared previous at dct8x8.1.sm_61.ptx:33 skipping new declaration
GPGPU-Sim PTX: Warning %r27 was declared previous at dct8x8.1.sm_61.ptx:33 skipping new declaration
GPGPU-Sim PTX: Warning %r28 was declared previous at dct8x8.1.sm_61.ptx:33 skipping new declaration
GPGPU-Sim PTX: Warning %r29 was declared previous at dct8x8.1.sm_61.ptx:33 skipping new declaration
GPGPU-Sim PTX: Warning %rd0 was declared previous at dct8x8.1.sm_61.ptx:34 skipping new declaration
GPGPU-Sim PTX: Warning %rd1 was declared previous at dct8x8.1.sm_61.ptx:34 skipping new declaration
GPGPU-Sim PTX: Warning %rd2 was declared previous at dct8x8.1.sm_61.ptx:34 skipping new declaration
GPGPU-Sim PTX: Warning %rd3 was declared previous at dct8x8.1.sm_61.ptx:34 skipping new declaration
GPGPU-Sim PTX: Warning %rd4 was declared previous at dct8x8.1.sm_61.ptx:34 skipping new declaration
GPGPU-Sim PTX: Warning %rd5 was declared previous at dct8x8.1.sm_61.ptx:34 skipping new declaration
GPGPU-Sim PTX: Warning %rd6 was declared previous at dct8x8.1.sm_61.ptx:34 skipping new declaration
GPGPU-Sim PTX: Warning %rd7 was declared previous at dct8x8.1.sm_61.ptx:34 skipping new declaration
GPGPU-Sim PTX: Warning %rd8 was declared previous at dct8x8.1.sm_61.ptx:34 skipping new declaration
GPGPU-Sim PTX: Warning %rd9 was declared previous at dct8x8.1.sm_61.ptx:34 skipping new declaration
GPGPU-Sim PTX: Warning %rd10 was declared previous at dct8x8.1.sm_61.ptx:34 skipping new declaration
GPGPU-Sim PTX: Warning %rd11 was declared previous at dct8x8.1.sm_61.ptx:34 skipping new declaration
GPGPU-Sim PTX: instruction assembly for function '_Z14CUDAkernel1DCTPfiii'...   done.
GPGPU-Sim PTX: Warning %f0 was declared previous at dct8x8.1.sm_61.ptx:144 skipping new declaration
GPGPU-Sim PTX: Warning %f1 was declared previous at dct8x8.1.sm_61.ptx:144 skipping new declaration
GPGPU-Sim PTX: Warning %f2 was declared previous at dct8x8.1.sm_61.ptx:144 skipping new declaration
GPGPU-Sim PTX: Warning %f3 was declared previous at dct8x8.1.sm_61.ptx:144 skipping new declaration
GPGPU-Sim PTX: Warning %f4 was declared previous at dct8x8.1.sm_61.ptx:144 skipping new declaration
GPGPU-Sim PTX: Warning %f5 was declared previous at dct8x8.1.sm_61.ptx:144 skipping new declaration
GPGPU-Sim PTX: Warning %f6 was declared previous at dct8x8.1.sm_61.ptx:144 skipping new declaration
GPGPU-Sim PTX: Warning %f7 was declared previous at dct8x8.1.sm_61.ptx:144 skipping new declaration
GPGPU-Sim PTX: Warning %f8 was declared previous at dct8x8.1.sm_61.ptx:144 skipping new declaration
GPGPU-Sim PTX: Warning %f9 was declared previous at dct8x8.1.sm_61.ptx:144 skipping new declaration
GPGPU-Sim PTX: Warning %f10 was declared previous at dct8x8.1.sm_61.ptx:144 skipping new declaration
GPGPU-Sim PTX: Warning %f11 was declared previous at dct8x8.1.sm_61.ptx:144 skipping new declaration
GPGPU-Sim PTX: Warning %f12 was declared previous at dct8x8.1.sm_61.ptx:144 skipping new declaration
GPGPU-Sim PTX: Warning %f13 was declared previous at dct8x8.1.sm_61.ptx:144 skipping new declaration
GPGPU-Sim PTX: Warning %f14 was declared previous at dct8x8.1.sm_61.ptx:144 skipping new declaration
GPGPU-Sim PTX: Warning %f15 was declared previous at dct8x8.1.sm_61.ptx:144 skipping new declaration
GPGPU-Sim PTX: Warning %f16 was declared previous at dct8x8.1.sm_61.ptx:144 skipping new declaration
GPGPU-Sim PTX: Warning %f17 was declared previous at dct8x8.1.sm_61.ptx:144 skipping new declaration
GPGPU-Sim PTX: Warning %f18 was declared previous at dct8x8.1.sm_61.ptx:144 skipping new declaration
GPGPU-Sim PTX: Warning %f19 was declared previous at dct8x8.1.sm_61.ptx:144 skipping new declaration
GPGPU-Sim PTX: Warning %f20 was declared previous at dct8x8.1.sm_61.ptx:144 skipping new declaration
GPGPU-Sim PTX: Warning %f21 was declared previous at dct8x8.1.sm_61.ptx:144 skipping new declaration
GPGPU-Sim PTX: Warning %f22 was declared previous at dct8x8.1.sm_61.ptx:144 skipping new declaration
GPGPU-Sim PTX: Warning %f23 was declared previous at dct8x8.1.sm_61.ptx:144 skipping new declaration
GPGPU-Sim PTX: Warning %f24 was declared previous at dct8x8.1.sm_61.ptx:144 skipping new declaration
GPGPU-Sim PTX: Warning %f25 was declared previous at dct8x8.1.sm_61.ptx:144 skipping new declaration
GPGPU-Sim PTX: Warning %f26 was declared previous at dct8x8.1.sm_61.ptx:144 skipping new declaration
GPGPU-Sim PTX: Warning %f27 was declared previous at dct8x8.1.sm_61.ptx:144 skipping new declaration
GPGPU-Sim PTX: Warning %f28 was declared previous at dct8x8.1.sm_61.ptx:144 skipping new declaration
GPGPU-Sim PTX: Warning %f29 was declared previous at dct8x8.1.sm_61.ptx:144 skipping new declaration
GPGPU-Sim PTX: Warning %f30 was declared previous at dct8x8.1.sm_61.ptx:144 skipping new declaration
GPGPU-Sim PTX: Warning %f31 was declared previous at dct8x8.1.sm_61.ptx:144 skipping new declaration
GPGPU-Sim PTX: Warning %f32 was declared previous at dct8x8.1.sm_61.ptx:144 skipping new declaration
GPGPU-Sim PTX: Warning %f33 was declared previous at dct8x8.1.sm_61.ptx:144 skipping new declaration
GPGPU-Sim PTX: Warning %f34 was declared previous at dct8x8.1.sm_61.ptx:144 skipping new declaration
GPGPU-Sim PTX: Warning %f35 was declared previous at dct8x8.1.sm_61.ptx:144 skipping new declaration
GPGPU-Sim PTX: Warning %f36 was declared previous at dct8x8.1.sm_61.ptx:144 skipping new declaration
GPGPU-Sim PTX: Warning %f37 was declared previous at dct8x8.1.sm_61.ptx:144 skipping new declaration
GPGPU-Sim PTX: Warning %f38 was declared previous at dct8x8.1.sm_61.ptx:144 skipping new declaration
GPGPU-Sim PTX: Warning %f39 was declared previous at dct8x8.1.sm_61.ptx:144 skipping new declaration
GPGPU-Sim PTX: Warning %f40 was declared previous at dct8x8.1.sm_61.ptx:144 skipping new declaration
GPGPU-Sim PTX: Warning %f41 was declared previous at dct8x8.1.sm_61.ptx:144 skipping new declaration
GPGPU-Sim PTX: Warning %f42 was declared previous at dct8x8.1.sm_61.ptx:144 skipping new declaration
GPGPU-Sim PTX: Warning %f43 was declared previous at dct8x8.1.sm_61.ptx:144 skipping new declaration
GPGPU-Sim PTX: Warning %f44 was declared previous at dct8x8.1.sm_61.ptx:144 skipping new declaration
GPGPU-Sim PTX: Warning %f45 was declared previous at dct8x8.1.sm_61.ptx:144 skipping new declaration
GPGPU-Sim PTX: Warning %f46 was declared previous at dct8x8.1.sm_61.ptx:144 skipping new declaration
GPGPU-Sim PTX: Warning %f47 was declared previous at dct8x8.1.sm_61.ptx:144 skipping new declaration
GPGPU-Sim PTX: Warning %f48 was declared previous at dct8x8.1.sm_61.ptx:144 skipping new declaration
GPGPU-Sim PTX: Warning %f49 was declared previous at dct8x8.1.sm_61.ptx:144 skipping new declaration
GPGPU-Sim PTX: Warning %f50 was declared previous at dct8x8.1.sm_61.ptx:144 skipping new declaration
GPGPU-Sim PTX: Warning %f51 was declared previous at dct8x8.1.sm_61.ptx:144 skipping new declaration
GPGPU-Sim PTX: Warning %f52 was declared previous at dct8x8.1.sm_61.ptx:144 skipping new declaration
GPGPU-Sim PTX: Warning %f53 was declared previous at dct8x8.1.sm_61.ptx:144 skipping new declaration
GPGPU-Sim PTX: Warning %f54 was declared previous at dct8x8.1.sm_61.ptx:144 skipping new declaration
GPGPU-Sim PTX: Warning %f55 was declared previous at dct8x8.1.sm_61.ptx:144 skipping new declaration
GPGPU-Sim PTX: Warning %f56 was declared previous at dct8x8.1.sm_61.ptx:144 skipping new declaration
GPGPU-Sim PTX: Warning %f57 was declared previous at dct8x8.1.sm_61.ptx:144 skipping new declaration
GPGPU-Sim PTX: Warning %r0 was declared previous at dct8x8.1.sm_61.ptx:145 skipping new declaration
GPGPU-Sim PTX: Warning %r1 was declared previous at dct8x8.1.sm_61.ptx:145 skipping new declaration
GPGPU-Sim PTX: Warning %r2 was declared previous at dct8x8.1.sm_61.ptx:145 skipping new declaration
GPGPU-Sim PTX: Warning %r3 was declared previous at dct8x8.1.sm_61.ptx:145 skipping new declaration
GPGPU-Sim PTX: Warning %r4 was declared previous at dct8x8.1.sm_61.ptx:145 skipping new declaration
GPGPU-Sim PTX: Warning %r5 was declared previous at dct8x8.1.sm_61.ptx:145 skipping new declaration
GPGPU-Sim PTX: Warning %r6 was declared previous at dct8x8.1.sm_61.ptx:145 skipping new declaration
GPGPU-Sim PTX: Warning %r7 was declared previous at dct8x8.1.sm_61.ptx:145 skipping new declaration
GPGPU-Sim PTX: Warning %r8 was declared previous at dct8x8.1.sm_61.ptx:145 skipping new declaration
GPGPU-Sim PTX: Warning %r9 was declared previous at dct8x8.1.sm_61.ptx:145 skipping new declaration
GPGPU-Sim PTX: Warning %r10 was declared previous at dct8x8.1.sm_61.ptx:145 skipping new declaration
GPGPU-Sim PTX: Warning %r11 was declared previous at dct8x8.1.sm_61.ptx:145 skipping new declaration
GPGPU-Sim PTX: Warning %r12 was declared previous at dct8x8.1.sm_61.ptx:145 skipping new declaration
GPGPU-Sim PTX: Warning %r13 was declared previous at dct8x8.1.sm_61.ptx:145 skipping new declaration
GPGPU-Sim PTX: Warning %r14 was declared previous at dct8x8.1.sm_61.ptx:145 skipping new declaration
GPGPU-Sim PTX: Warning %r15 was declared previous at dct8x8.1.sm_61.ptx:145 skipping new declaration
GPGPU-Sim PTX: Warning %r16 was declared previous at dct8x8.1.sm_61.ptx:145 skipping new declaration
GPGPU-Sim PTX: Warning %r17 was declared previous at dct8x8.1.sm_61.ptx:145 skipping new declaration
GPGPU-Sim PTX: Warning %r18 was declared previous at dct8x8.1.sm_61.ptx:145 skipping new declaration
GPGPU-Sim PTX: Warning %r19 was declared previous at dct8x8.1.sm_61.ptx:145 skipping new declaration
GPGPU-Sim PTX: Warning %r20 was declared previous at dct8x8.1.sm_61.ptx:145 skipping new declaration
GPGPU-Sim PTX: Warning %r21 was declared previous at dct8x8.1.sm_61.ptx:145 skipping new declaration
GPGPU-Sim PTX: Warning %r22 was declared previous at dct8x8.1.sm_61.ptx:145 skipping new declaration
GPGPU-Sim PTX: Warning %r23 was declared previous at dct8x8.1.sm_61.ptx:145 skipping new declaration
GPGPU-Sim PTX: Warning %r24 was declared previous at dct8x8.1.sm_61.ptx:145 skipping new declaration
GPGPU-Sim PTX: Warning %r25 was declared previous at dct8x8.1.sm_61.ptx:145 skipping new declaration
GPGPU-Sim PTX: Warning %r26 was declared previous at dct8x8.1.sm_61.ptx:145 skipping new declaration
GPGPU-Sim PTX: Warning %r27 was declared previous at dct8x8.1.sm_61.ptx:145 skipping new declaration
GPGPU-Sim PTX: Warning %r28 was declared previous at dct8x8.1.sm_61.ptx:145 skipping new declaration
GPGPU-Sim PTX: Warning %r29 was declared previous at dct8x8.1.sm_61.ptx:145 skipping new declaration
GPGPU-Sim PTX: Warning %r30 was declared previous at dct8x8.1.sm_61.ptx:145 skipping new declaration
GPGPU-Sim PTX: Warning %rd0 was declared previous at dct8x8.1.sm_61.ptx:146 skipping new declaration
GPGPU-Sim PTX: Warning %rd1 was declared previous at dct8x8.1.sm_61.ptx:146 skipping new declaration
GPGPU-Sim PTX: Warning %rd2 was declared previous at dct8x8.1.sm_61.ptx:146 skipping new declaration
GPGPU-Sim PTX: Warning %rd3 was declared previous at dct8x8.1.sm_61.ptx:146 skipping new declaration
GPGPU-Sim PTX: Warning %rd4 was declared previous at dct8x8.1.sm_61.ptx:146 skipping new declaration
GPGPU-Sim PTX: Warning %rd5 was declared previous at dct8x8.1.sm_61.ptx:146 skipping new declaration
GPGPU-Sim PTX: Warning %rd6 was declared previous at dct8x8.1.sm_61.ptx:146 skipping new declaration
GPGPU-Sim PTX: Warning %rd7 was declared previous at dct8x8.1.sm_61.ptx:146 skipping new declaration
GPGPU-Sim PTX: Warning %rd8 was declared previous at dct8x8.1.sm_61.ptx:146 skipping new declaration
GPGPU-Sim PTX: Warning %rd9 was declared previous at dct8x8.1.sm_61.ptx:146 skipping new declaration
GPGPU-Sim PTX: Warning %rd10 was declared previous at dct8x8.1.sm_61.ptx:146 skipping new declaration
GPGPU-Sim PTX: Warning %rd11 was declared previous at dct8x8.1.sm_61.ptx:146 skipping new declaration
GPGPU-Sim PTX: instruction assembly for function '_Z15CUDAkernel1IDCTPfiii'...   done.
GPGPU-Sim PTX: Warning %f0 was declared previous at dct8x8.1.sm_61.ptx:256 skipping new declaration
GPGPU-Sim PTX: Warning %f1 was declared previous at dct8x8.1.sm_61.ptx:256 skipping new declaration
GPGPU-Sim PTX: Warning %f2 was declared previous at dct8x8.1.sm_61.ptx:256 skipping new declaration
GPGPU-Sim PTX: Warning %f3 was declared previous at dct8x8.1.sm_61.ptx:256 skipping new declaration
GPGPU-Sim PTX: Warning %f4 was declared previous at dct8x8.1.sm_61.ptx:256 skipping new declaration
GPGPU-Sim PTX: Warning %f5 was declared previous at dct8x8.1.sm_61.ptx:256 skipping new declaration
GPGPU-Sim PTX: Warning %f6 was declared previous at dct8x8.1.sm_61.ptx:256 skipping new declaration
GPGPU-Sim PTX: Warning %f7 was declared previous at dct8x8.1.sm_61.ptx:256 skipping new declaration
GPGPU-Sim PTX: Warning %f8 was declared previous at dct8x8.1.sm_61.ptx:256 skipping new declaration
GPGPU-Sim PTX: Warning %f9 was declared previous at dct8x8.1.sm_61.ptx:256 skipping new declaration
GPGPU-Sim PTX: Warning %f10 was declared previous at dct8x8.1.sm_61.ptx:256 skipping new declaration
GPGPU-Sim PTX: Warning %f11 was declared previous at dct8x8.1.sm_61.ptx:256 skipping new declaration
GPGPU-Sim PTX: Warning %f12 was declared previous at dct8x8.1.sm_61.ptx:256 skipping new declaration
GPGPU-Sim PTX: Warning %f13 was declared previous at dct8x8.1.sm_61.ptx:256 skipping new declaration
GPGPU-Sim PTX: Warning %f14 was declared previous at dct8x8.1.sm_61.ptx:256 skipping new declaration
GPGPU-Sim PTX: Warning %f15 was declared previous at dct8x8.1.sm_61.ptx:256 skipping new declaration
GPGPU-Sim PTX: Warning %f16 was declared previous at dct8x8.1.sm_61.ptx:256 skipping new declaration
GPGPU-Sim PTX: Warning %f17 was declared previous at dct8x8.1.sm_61.ptx:256 skipping new declaration
GPGPU-Sim PTX: Warning %f18 was declared previous at dct8x8.1.sm_61.ptx:256 skipping new declaration
GPGPU-Sim PTX: Warning %f19 was declared previous at dct8x8.1.sm_61.ptx:256 skipping new declaration
GPGPU-Sim PTX: Warning %f20 was declared previous at dct8x8.1.sm_61.ptx:256 skipping new declaration
GPGPU-Sim PTX: Warning %f21 was declared previous at dct8x8.1.sm_61.ptx:256 skipping new declaration
GPGPU-Sim PTX: Warning %f22 was declared previous at dct8x8.1.sm_61.ptx:256 skipping new declaration
GPGPU-Sim PTX: Warning %f23 was declared previous at dct8x8.1.sm_61.ptx:256 skipping new declaration
GPGPU-Sim PTX: Warning %f24 was declared previous at dct8x8.1.sm_61.ptx:256 skipping new declaration
GPGPU-Sim PTX: Warning %f25 was declared previous at dct8x8.1.sm_61.ptx:256 skipping new declaration
GPGPU-Sim PTX: Warning %f26 was declared previous at dct8x8.1.sm_61.ptx:256 skipping new declaration
GPGPU-Sim PTX: Warning %f27 was declared previous at dct8x8.1.sm_61.ptx:256 skipping new declaration
GPGPU-Sim PTX: Warning %f28 was declared previous at dct8x8.1.sm_61.ptx:256 skipping new declaration
GPGPU-Sim PTX: Warning %f29 was declared previous at dct8x8.1.sm_61.ptx:256 skipping new declaration
GPGPU-Sim PTX: Warning %f30 was declared previous at dct8x8.1.sm_61.ptx:256 skipping new declaration
GPGPU-Sim PTX: Warning %f31 was declared previous at dct8x8.1.sm_61.ptx:256 skipping new declaration
GPGPU-Sim PTX: Warning %f32 was declared previous at dct8x8.1.sm_61.ptx:256 skipping new declaration
GPGPU-Sim PTX: Warning %f33 was declared previous at dct8x8.1.sm_61.ptx:256 skipping new declaration
GPGPU-Sim PTX: Warning %f34 was declared previous at dct8x8.1.sm_61.ptx:256 skipping new declaration
GPGPU-Sim PTX: Warning %f35 was declared previous at dct8x8.1.sm_61.ptx:256 skipping new declaration
GPGPU-Sim PTX: Warning %f36 was declared previous at dct8x8.1.sm_61.ptx:256 skipping new declaration
GPGPU-Sim PTX: Warning %f37 was declared previous at dct8x8.1.sm_61.ptx:256 skipping new declaration
GPGPU-Sim PTX: Warning %f38 was declared previous at dct8x8.1.sm_61.ptx:256 skipping new declaration
GPGPU-Sim PTX: Warning %f39 was declared previous at dct8x8.1.sm_61.ptx:256 skipping new declaration
GPGPU-Sim PTX: Warning %f40 was declared previous at dct8x8.1.sm_61.ptx:256 skipping new declaration
GPGPU-Sim PTX: Warning %f41 was declared previous at dct8x8.1.sm_61.ptx:256 skipping new declaration
GPGPU-Sim PTX: Warning %f42 was declared previous at dct8x8.1.sm_61.ptx:256 skipping new declaration
GPGPU-Sim PTX: Warning %f43 was declared previous at dct8x8.1.sm_61.ptx:256 skipping new declaration
GPGPU-Sim PTX: Warning %f44 was declared previous at dct8x8.1.sm_61.ptx:256 skipping new declaration
GPGPU-Sim PTX: Warning %f45 was declared previous at dct8x8.1.sm_61.ptx:256 skipping new declaration
GPGPU-Sim PTX: Warning %f46 was declared previous at dct8x8.1.sm_61.ptx:256 skipping new declaration
GPGPU-Sim PTX: Warning %f47 was declared previous at dct8x8.1.sm_61.ptx:256 skipping new declaration
GPGPU-Sim PTX: Warning %f48 was declared previous at dct8x8.1.sm_61.ptx:256 skipping new declaration
GPGPU-Sim PTX: Warning %f49 was declared previous at dct8x8.1.sm_61.ptx:256 skipping new declaration
GPGPU-Sim PTX: Warning %f50 was declared previous at dct8x8.1.sm_61.ptx:256 skipping new declaration
GPGPU-Sim PTX: Warning %f51 was declared previous at dct8x8.1.sm_61.ptx:256 skipping new declaration
GPGPU-Sim PTX: Warning %f52 was declared previous at dct8x8.1.sm_61.ptx:256 skipping new declaration
GPGPU-Sim PTX: Warning %f53 was declared previous at dct8x8.1.sm_61.ptx:256 skipping new declaration
GPGPU-Sim PTX: Warning %f54 was declared previous at dct8x8.1.sm_61.ptx:256 skipping new declaration
GPGPU-Sim PTX: Warning %f55 was declared previous at dct8x8.1.sm_61.ptx:256 skipping new declaration
GPGPU-Sim PTX: Warning %f56 was declared previous at dct8x8.1.sm_61.ptx:256 skipping new declaration
GPGPU-Sim PTX: Warning %f57 was declared previous at dct8x8.1.sm_61.ptx:256 skipping new declaration
GPGPU-Sim PTX: Warning %f58 was declared previous at dct8x8.1.sm_61.ptx:256 skipping new declaration
GPGPU-Sim PTX: Warning %f59 was declared previous at dct8x8.1.sm_61.ptx:256 skipping new declaration
GPGPU-Sim PTX: Warning %f60 was declared previous at dct8x8.1.sm_61.ptx:256 skipping new declaration
GPGPU-Sim PTX: Warning %f61 was declared previous at dct8x8.1.sm_61.ptx:256 skipping new declaration
GPGPU-Sim PTX: Warning %f62 was declared previous at dct8x8.1.sm_61.ptx:256 skipping new declaration
GPGPU-Sim PTX: Warning %f63 was declared previous at dct8x8.1.sm_61.ptx:256 skipping new declaration
GPGPU-Sim PTX: Warning %f64 was declared previous at dct8x8.1.sm_61.ptx:256 skipping new declaration
GPGPU-Sim PTX: Warning %f65 was declared previous at dct8x8.1.sm_61.ptx:256 skipping new declaration
GPGPU-Sim PTX: Warning %f66 was declared previous at dct8x8.1.sm_61.ptx:256 skipping new declaration
GPGPU-Sim PTX: Warning %f67 was declared previous at dct8x8.1.sm_61.ptx:256 skipping new declaration
GPGPU-Sim PTX: Warning %f68 was declared previous at dct8x8.1.sm_61.ptx:256 skipping new declaration
GPGPU-Sim PTX: Warning %f69 was declared previous at dct8x8.1.sm_61.ptx:256 skipping new declaration
GPGPU-Sim PTX: Warning %f70 was declared previous at dct8x8.1.sm_61.ptx:256 skipping new declaration
GPGPU-Sim PTX: Warning %f71 was declared previous at dct8x8.1.sm_61.ptx:256 skipping new declaration
GPGPU-Sim PTX: Warning %f72 was declared previous at dct8x8.1.sm_61.ptx:256 skipping new declaration
GPGPU-Sim PTX: Warning %f73 was declared previous at dct8x8.1.sm_61.ptx:256 skipping new declaration
GPGPU-Sim PTX: Warning %f74 was declared previous at dct8x8.1.sm_61.ptx:256 skipping new declaration
GPGPU-Sim PTX: Warning %f75 was declared previous at dct8x8.1.sm_61.ptx:256 skipping new declaration
GPGPU-Sim PTX: Warning %f76 was declared previous at dct8x8.1.sm_61.ptx:256 skipping new declaration
GPGPU-Sim PTX: Warning %f77 was declared previous at dct8x8.1.sm_61.ptx:256 skipping new declaration
GPGPU-Sim PTX: Warning %f78 was declared previous at dct8x8.1.sm_61.ptx:256 skipping new declaration
GPGPU-Sim PTX: Warning %f79 was declared previous at dct8x8.1.sm_61.ptx:256 skipping new declaration
GPGPU-Sim PTX: Warning %f80 was declared previous at dct8x8.1.sm_61.ptx:256 skipping new declaration
GPGPU-Sim PTX: Warning %f81 was declared previous at dct8x8.1.sm_61.ptx:256 skipping new declaration
GPGPU-Sim PTX: Warning %f82 was declared previous at dct8x8.1.sm_61.ptx:256 skipping new declaration
GPGPU-Sim PTX: Warning %f83 was declared previous at dct8x8.1.sm_61.ptx:256 skipping new declaration
GPGPU-Sim PTX: Warning %f84 was declared previous at dct8x8.1.sm_61.ptx:256 skipping new declaration
GPGPU-Sim PTX: Warning %f85 was declared previous at dct8x8.1.sm_61.ptx:256 skipping new declaration
GPGPU-Sim PTX: Warning %f86 was declared previous at dct8x8.1.sm_61.ptx:256 skipping new declaration
GPGPU-Sim PTX: Warning %f87 was declared previous at dct8x8.1.sm_61.ptx:256 skipping new declaration
GPGPU-Sim PTX: Warning %f88 was declared previous at dct8x8.1.sm_61.ptx:256 skipping new declaration
GPGPU-Sim PTX: Warning %f89 was declared previous at dct8x8.1.sm_61.ptx:256 skipping new declaration
GPGPU-Sim PTX: Warning %f90 was declared previous at dct8x8.1.sm_61.ptx:256 skipping new declaration
GPGPU-Sim PTX: Warning %f91 was declared previous at dct8x8.1.sm_61.ptx:256 skipping new declaration
GPGPU-Sim PTX: Warning %f92 was declared previous at dct8x8.1.sm_61.ptx:256 skipping new declaration
GPGPU-Sim PTX: Warning %f93 was declared previous at dct8x8.1.sm_61.ptx:256 skipping new declaration
GPGPU-Sim PTX: Warning %f94 was declared previous at dct8x8.1.sm_61.ptx:256 skipping new declaration
GPGPU-Sim PTX: Warning %f95 was declared previous at dct8x8.1.sm_61.ptx:256 skipping new declaration
GPGPU-Sim PTX: Warning %f96 was declared previous at dct8x8.1.sm_61.ptx:256 skipping new declaration
GPGPU-Sim PTX: Warning %f97 was declared previous at dct8x8.1.sm_61.ptx:256 skipping new declaration
GPGPU-Sim PTX: Warning %f98 was declared previous at dct8x8.1.sm_61.ptx:256 skipping new declaration
GPGPU-Sim PTX: Warning %f99 was declared previous at dct8x8.1.sm_61.ptx:256 skipping new declaration
GPGPU-Sim PTX: Warning %f100 was declared previous at dct8x8.1.sm_61.ptx:256 skipping new declaration
GPGPU-Sim PTX: Warning %f101 was declared previous at dct8x8.1.sm_61.ptx:256 skipping new declaration
GPGPU-Sim PTX: Warning %f102 was declared previous at dct8x8.1.sm_61.ptx:256 skipping new declaration
GPGPU-Sim PTX: Warning %f103 was declared previous at dct8x8.1.sm_61.ptx:256 skipping new declaration
GPGPU-Sim PTX: Warning %f104 was declared previous at dct8x8.1.sm_61.ptx:256 skipping new declaration
GPGPU-Sim PTX: Warning %f105 was declared previous at dct8x8.1.sm_61.ptx:256 skipping new declaration
GPGPU-Sim PTX: Warning %f106 was declared previous at dct8x8.1.sm_61.ptx:256 skipping new declaration
GPGPU-Sim PTX: Warning %f107 was declared previous at dct8x8.1.sm_61.ptx:256 skipping new declaration
GPGPU-Sim PTX: Warning %f108 was declared previous at dct8x8.1.sm_61.ptx:256 skipping new declaration
GPGPU-Sim PTX: Warning %f109 was declared previous at dct8x8.1.sm_61.ptx:256 skipping new declaration
GPGPU-Sim PTX: Warning %f110 was declared previous at dct8x8.1.sm_61.ptx:256 skipping new declaration
GPGPU-Sim PTX: Warning %f111 was declared previous at dct8x8.1.sm_61.ptx:256 skipping new declaration
GPGPU-Sim PTX: Warning %f112 was declared previous at dct8x8.1.sm_61.ptx:256 skipping new declaration
GPGPU-Sim PTX: Warning %f113 was declared previous at dct8x8.1.sm_61.ptx:256 skipping new declaration
GPGPU-Sim PTX: Warning %f114 was declared previous at dct8x8.1.sm_61.ptx:256 skipping new declaration
GPGPU-Sim PTX: Warning %f115 was declared previous at dct8x8.1.sm_61.ptx:256 skipping new declaration
GPGPU-Sim PTX: Warning %f116 was declared previous at dct8x8.1.sm_61.ptx:256 skipping new declaration
GPGPU-Sim PTX: Warning %f117 was declared previous at dct8x8.1.sm_61.ptx:256 skipping new declaration
GPGPU-Sim PTX: Warning %f118 was declared previous at dct8x8.1.sm_61.ptx:256 skipping new declaration
GPGPU-Sim PTX: Warning %f119 was declared previous at dct8x8.1.sm_61.ptx:256 skipping new declaration
GPGPU-Sim PTX: Warning %f120 was declared previous at dct8x8.1.sm_61.ptx:256 skipping new declaration
GPGPU-Sim PTX: Warning %f121 was declared previous at dct8x8.1.sm_61.ptx:256 skipping new declaration
GPGPU-Sim PTX: Warning %f122 was declared previous at dct8x8.1.sm_61.ptx:256 skipping new declaration
GPGPU-Sim PTX: Warning %f123 was declared previous at dct8x8.1.sm_61.ptx:256 skipping new declaration
GPGPU-Sim PTX: Warning %f124 was declared previous at dct8x8.1.sm_61.ptx:256 skipping new declaration
GPGPU-Sim PTX: Warning %f125 was declared previous at dct8x8.1.sm_61.ptx:256 skipping new declaration
GPGPU-Sim PTX: Warning %f126 was declared previous at dct8x8.1.sm_61.ptx:256 skipping new declaration
GPGPU-Sim PTX: Warning %r0 was declared previous at dct8x8.1.sm_61.ptx:257 skipping new declaration
GPGPU-Sim PTX: Warning %r1 was declared previous at dct8x8.1.sm_61.ptx:257 skipping new declaration
GPGPU-Sim PTX: Warning %r2 was declared previous at dct8x8.1.sm_61.ptx:257 skipping new declaration
GPGPU-Sim PTX: Warning %r3 was declared previous at dct8x8.1.sm_61.ptx:257 skipping new declaration
GPGPU-Sim PTX: Warning %r4 was declared previous at dct8x8.1.sm_61.ptx:257 skipping new declaration
GPGPU-Sim PTX: Warning %r5 was declared previous at dct8x8.1.sm_61.ptx:257 skipping new declaration
GPGPU-Sim PTX: Warning %r6 was declared previous at dct8x8.1.sm_61.ptx:257 skipping new declaration
GPGPU-Sim PTX: Warning %r7 was declared previous at dct8x8.1.sm_61.ptx:257 skipping new declaration
GPGPU-Sim PTX: Warning %r8 was declared previous at dct8x8.1.sm_61.ptx:257 skipping new declaration
GPGPU-Sim PTX: Warning %r9 was declared previous at dct8x8.1.sm_61.ptx:257 skipping new declaration
GPGPU-Sim PTX: Warning %r10 was declared previous at dct8x8.1.sm_61.ptx:257 skipping new declaration
GPGPU-Sim PTX: Warning %r11 was declared previous at dct8x8.1.sm_61.ptx:257 skipping new declaration
GPGPU-Sim PTX: Warning %r12 was declared previous at dct8x8.1.sm_61.ptx:257 skipping new declaration
GPGPU-Sim PTX: Warning %r13 was declared previous at dct8x8.1.sm_61.ptx:257 skipping new declaration
GPGPU-Sim PTX: Warning %r14 was declared previous at dct8x8.1.sm_61.ptx:257 skipping new declaration
GPGPU-Sim PTX: Warning %r15 was declared previous at dct8x8.1.sm_61.ptx:257 skipping new declaration
GPGPU-Sim PTX: Warning %r16 was declared previous at dct8x8.1.sm_61.ptx:257 skipping new declaration
GPGPU-Sim PTX: Warning %r17 was declared previous at dct8x8.1.sm_61.ptx:257 skipping new declaration
GPGPU-Sim PTX: Warning %r18 was declared previous at dct8x8.1.sm_61.ptx:257 skipping new declaration
GPGPU-Sim PTX: Warning %r19 was declared previous at dct8x8.1.sm_61.ptx:257 skipping new declaration
GPGPU-Sim PTX: Warning %r20 was declared previous at dct8x8.1.sm_61.ptx:257 skipping new declaration
GPGPU-Sim PTX: Warning %r21 was declared previous at dct8x8.1.sm_61.ptx:257 skipping new declaration
GPGPU-Sim PTX: Warning %r22 was declared previous at dct8x8.1.sm_61.ptx:257 skipping new declaration
GPGPU-Sim PTX: Warning %r23 was declared previous at dct8x8.1.sm_61.ptx:257 skipping new declaration
GPGPU-Sim PTX: Warning %r24 was declared previous at dct8x8.1.sm_61.ptx:257 skipping new declaration
GPGPU-Sim PTX: Warning %r25 was declared previous at dct8x8.1.sm_61.ptx:257 skipping new declaration
GPGPU-Sim PTX: Warning %r26 was declared previous at dct8x8.1.sm_61.ptx:257 skipping new declaration
GPGPU-Sim PTX: Warning %r27 was declared previous at dct8x8.1.sm_61.ptx:257 skipping new declaration
GPGPU-Sim PTX: Warning %r28 was declared previous at dct8x8.1.sm_61.ptx:257 skipping new declaration
GPGPU-Sim PTX: Warning %r29 was declared previous at dct8x8.1.sm_61.ptx:257 skipping new declaration
GPGPU-Sim PTX: Warning %r30 was declared previous at dct8x8.1.sm_61.ptx:257 skipping new declaration
GPGPU-Sim PTX: Warning %r31 was declared previous at dct8x8.1.sm_61.ptx:257 skipping new declaration
GPGPU-Sim PTX: Warning %rd0 was declared previous at dct8x8.1.sm_61.ptx:258 skipping new declaration
GPGPU-Sim PTX: Warning %rd1 was declared previous at dct8x8.1.sm_61.ptx:258 skipping new declaration
GPGPU-Sim PTX: Warning %rd2 was declared previous at dct8x8.1.sm_61.ptx:258 skipping new declaration
GPGPU-Sim PTX: Warning %rd3 was declared previous at dct8x8.1.sm_61.ptx:258 skipping new declaration
GPGPU-Sim PTX: Warning %rd4 was declared previous at dct8x8.1.sm_61.ptx:258 skipping new declaration
GPGPU-Sim PTX: Warning %rd5 was declared previous at dct8x8.1.sm_61.ptx:258 skipping new declaration
GPGPU-Sim PTX: Warning %rd6 was declared previous at dct8x8.1.sm_61.ptx:258 skipping new declaration
GPGPU-Sim PTX: Warning %rd7 was declared previous at dct8x8.1.sm_61.ptx:258 skipping new declaration
GPGPU-Sim PTX: Warning %rd8 was declared previous at dct8x8.1.sm_61.ptx:258 skipping new declaration
GPGPU-Sim PTX: Warning %rd9 was declared previous at dct8x8.1.sm_61.ptx:258 skipping new declaration
GPGPU-Sim PTX: Warning %rd10 was declared previous at dct8x8.1.sm_61.ptx:258 skipping new declaration
GPGPU-Sim PTX: Warning %rd11 was declared previous at dct8x8.1.sm_61.ptx:258 skipping new declaration
GPGPU-Sim PTX: Warning %rd12 was declared previous at dct8x8.1.sm_61.ptx:258 skipping new declaration
GPGPU-Sim PTX: Warning %rd13 was declared previous at dct8x8.1.sm_61.ptx:258 skipping new declaration
GPGPU-Sim PTX: Warning %rd14 was declared previous at dct8x8.1.sm_61.ptx:258 skipping new declaration
GPGPU-Sim PTX: Warning %rd15 was declared previous at dct8x8.1.sm_61.ptx:258 skipping new declaration
GPGPU-Sim PTX: Warning %rd16 was declared previous at dct8x8.1.sm_61.ptx:258 skipping new declaration
GPGPU-Sim PTX: Warning %rd17 was declared previous at dct8x8.1.sm_61.ptx:258 skipping new declaration
GPGPU-Sim PTX: Warning %rd18 was declared previous at dct8x8.1.sm_61.ptx:258 skipping new declaration
GPGPU-Sim PTX: Warning %rd19 was declared previous at dct8x8.1.sm_61.ptx:258 skipping new declaration
GPGPU-Sim PTX: Warning %rd20 was declared previous at dct8x8.1.sm_61.ptx:258 skipping new declaration
GPGPU-Sim PTX: Warning %rd21 was declared previous at dct8x8.1.sm_61.ptx:258 skipping new declaration
GPGPU-Sim PTX: Warning %rd22 was declared previous at dct8x8.1.sm_61.ptx:258 skipping new declaration
GPGPU-Sim PTX: Warning %rd23 was declared previous at dct8x8.1.sm_61.ptx:258 skipping new declaration
GPGPU-Sim PTX: Warning %rd24 was declared previous at dct8x8.1.sm_61.ptx:258 skipping new declaration
GPGPU-Sim PTX: Warning %rd25 was declared previous at dct8x8.1.sm_61.ptx:258 skipping new declaration
GPGPU-Sim PTX: Warning %rd26 was declared previous at dct8x8.1.sm_61.ptx:258 skipping new declaration
GPGPU-Sim PTX: Warning %rd27 was declared previous at dct8x8.1.sm_61.ptx:258 skipping new declaration
GPGPU-Sim PTX: Warning %rd28 was declared previous at dct8x8.1.sm_61.ptx:258 skipping new declaration
GPGPU-Sim PTX: Warning %rd29 was declared previous at dct8x8.1.sm_61.ptx:258 skipping new declaration
GPGPU-Sim PTX: Warning %rd30 was declared previous at dct8x8.1.sm_61.ptx:258 skipping new declaration
GPGPU-Sim PTX: Warning %rd31 was declared previous at dct8x8.1.sm_61.ptx:258 skipping new declaration
GPGPU-Sim PTX: Warning %rd32 was declared previous at dct8x8.1.sm_61.ptx:258 skipping new declaration
GPGPU-Sim PTX: Warning %rd33 was declared previous at dct8x8.1.sm_61.ptx:258 skipping new declaration
GPGPU-Sim PTX: Warning %rd34 was declared previous at dct8x8.1.sm_61.ptx:258 skipping new declaration
GPGPU-Sim PTX: Warning %rd35 was declared previous at dct8x8.1.sm_61.ptx:258 skipping new declaration
GPGPU-Sim PTX: Warning %rd36 was declared previous at dct8x8.1.sm_61.ptx:258 skipping new declaration
GPGPU-Sim PTX: Warning %rd37 was declared previous at dct8x8.1.sm_61.ptx:258 skipping new declaration
GPGPU-Sim PTX: Warning %rd38 was declared previous at dct8x8.1.sm_61.ptx:258 skipping new declaration
GPGPU-Sim PTX: Warning %rd39 was declared previous at dct8x8.1.sm_61.ptx:258 skipping new declaration
GPGPU-Sim PTX: Warning %rd40 was declared previous at dct8x8.1.sm_61.ptx:258 skipping new declaration
GPGPU-Sim PTX: Warning %rd41 was declared previous at dct8x8.1.sm_61.ptx:258 skipping new declaration
GPGPU-Sim PTX: Warning %rd42 was declared previous at dct8x8.1.sm_61.ptx:258 skipping new declaration
GPGPU-Sim PTX: Warning %rd43 was declared previous at dct8x8.1.sm_61.ptx:258 skipping new declaration
GPGPU-Sim PTX: Warning %rd44 was declared previous at dct8x8.1.sm_61.ptx:258 skipping new declaration
GPGPU-Sim PTX: Warning %rd45 was declared previous at dct8x8.1.sm_61.ptx:258 skipping new declaration
GPGPU-Sim PTX: Warning %rd46 was declared previous at dct8x8.1.sm_61.ptx:258 skipping new declaration
GPGPU-Sim PTX: Warning %rd47 was declared previous at dct8x8.1.sm_61.ptx:258 skipping new declaration
GPGPU-Sim PTX: Warning %rd48 was declared previous at dct8x8.1.sm_61.ptx:258 skipping new declaration
GPGPU-Sim PTX: Warning %rd49 was declared previous at dct8x8.1.sm_61.ptx:258 skipping new declaration
GPGPU-Sim PTX: Warning %rd50 was declared previous at dct8x8.1.sm_61.ptx:258 skipping new declaration
GPGPU-Sim PTX: Warning %rd51 was declared previous at dct8x8.1.sm_61.ptx:258 skipping new declaration
GPGPU-Sim PTX: Warning %rd52 was declared previous at dct8x8.1.sm_61.ptx:258 skipping new declaration
GPGPU-Sim PTX: Warning %rd53 was declared previous at dct8x8.1.sm_61.ptx:258 skipping new declaration
GPGPU-Sim PTX: Warning %rd54 was declared previous at dct8x8.1.sm_61.ptx:258 skipping new declaration
GPGPU-Sim PTX: Warning _ZZ14CUDAkernel2DCTPfS_iE5block was declared previous at dct8x8.1.sm_61.ptx:260 skipping new declaration
GPGPU-Sim PTX: instruction assembly for function '_Z14CUDAkernel2DCTPfS_i'...   done.
GPGPU-Sim PTX: Warning %f0 was declared previous at dct8x8.1.sm_61.ptx:510 skipping new declaration
GPGPU-Sim PTX: Warning %f1 was declared previous at dct8x8.1.sm_61.ptx:510 skipping new declaration
GPGPU-Sim PTX: Warning %f2 was declared previous at dct8x8.1.sm_61.ptx:510 skipping new declaration
GPGPU-Sim PTX: Warning %f3 was declared previous at dct8x8.1.sm_61.ptx:510 skipping new declaration
GPGPU-Sim PTX: Warning %f4 was declared previous at dct8x8.1.sm_61.ptx:510 skipping new declaration
GPGPU-Sim PTX: Warning %f5 was declared previous at dct8x8.1.sm_61.ptx:510 skipping new declaration
GPGPU-Sim PTX: Warning %f6 was declared previous at dct8x8.1.sm_61.ptx:510 skipping new declaration
GPGPU-Sim PTX: Warning %f7 was declared previous at dct8x8.1.sm_61.ptx:510 skipping new declaration
GPGPU-Sim PTX: Warning %f8 was declared previous at dct8x8.1.sm_61.ptx:510 skipping new declaration
GPGPU-Sim PTX: Warning %f9 was declared previous at dct8x8.1.sm_61.ptx:510 skipping new declaration
GPGPU-Sim PTX: Warning %f10 was declared previous at dct8x8.1.sm_61.ptx:510 skipping new declaration
GPGPU-Sim PTX: Warning %f11 was declared previous at dct8x8.1.sm_61.ptx:510 skipping new declaration
GPGPU-Sim PTX: Warning %f12 was declared previous at dct8x8.1.sm_61.ptx:510 skipping new declaration
GPGPU-Sim PTX: Warning %f13 was declared previous at dct8x8.1.sm_61.ptx:510 skipping new declaration
GPGPU-Sim PTX: Warning %f14 was declared previous at dct8x8.1.sm_61.ptx:510 skipping new declaration
GPGPU-Sim PTX: Warning %f15 was declared previous at dct8x8.1.sm_61.ptx:510 skipping new declaration
GPGPU-Sim PTX: Warning %f16 was declared previous at dct8x8.1.sm_61.ptx:510 skipping new declaration
GPGPU-Sim PTX: Warning %f17 was declared previous at dct8x8.1.sm_61.ptx:510 skipping new declaration
GPGPU-Sim PTX: Warning %f18 was declared previous at dct8x8.1.sm_61.ptx:510 skipping new declaration
GPGPU-Sim PTX: Warning %f19 was declared previous at dct8x8.1.sm_61.ptx:510 skipping new declaration
GPGPU-Sim PTX: Warning %f20 was declared previous at dct8x8.1.sm_61.ptx:510 skipping new declaration
GPGPU-Sim PTX: Warning %f21 was declared previous at dct8x8.1.sm_61.ptx:510 skipping new declaration
GPGPU-Sim PTX: Warning %f22 was declared previous at dct8x8.1.sm_61.ptx:510 skipping new declaration
GPGPU-Sim PTX: Warning %f23 was declared previous at dct8x8.1.sm_61.ptx:510 skipping new declaration
GPGPU-Sim PTX: Warning %f24 was declared previous at dct8x8.1.sm_61.ptx:510 skipping new declaration
GPGPU-Sim PTX: Warning %f25 was declared previous at dct8x8.1.sm_61.ptx:510 skipping new declaration
GPGPU-Sim PTX: Warning %f26 was declared previous at dct8x8.1.sm_61.ptx:510 skipping new declaration
GPGPU-Sim PTX: Warning %f27 was declared previous at dct8x8.1.sm_61.ptx:510 skipping new declaration
GPGPU-Sim PTX: Warning %f28 was declared previous at dct8x8.1.sm_61.ptx:510 skipping new declaration
GPGPU-Sim PTX: Warning %f29 was declared previous at dct8x8.1.sm_61.ptx:510 skipping new declaration
GPGPU-Sim PTX: Warning %f30 was declared previous at dct8x8.1.sm_61.ptx:510 skipping new declaration
GPGPU-Sim PTX: Warning %f31 was declared previous at dct8x8.1.sm_61.ptx:510 skipping new declaration
GPGPU-Sim PTX: Warning %f32 was declared previous at dct8x8.1.sm_61.ptx:510 skipping new declaration
GPGPU-Sim PTX: Warning %f33 was declared previous at dct8x8.1.sm_61.ptx:510 skipping new declaration
GPGPU-Sim PTX: Warning %f34 was declared previous at dct8x8.1.sm_61.ptx:510 skipping new declaration
GPGPU-Sim PTX: Warning %f35 was declared previous at dct8x8.1.sm_61.ptx:510 skipping new declaration
GPGPU-Sim PTX: Warning %f36 was declared previous at dct8x8.1.sm_61.ptx:510 skipping new declaration
GPGPU-Sim PTX: Warning %f37 was declared previous at dct8x8.1.sm_61.ptx:510 skipping new declaration
GPGPU-Sim PTX: Warning %f38 was declared previous at dct8x8.1.sm_61.ptx:510 skipping new declaration
GPGPU-Sim PTX: Warning %f39 was declared previous at dct8x8.1.sm_61.ptx:510 skipping new declaration
GPGPU-Sim PTX: Warning %f40 was declared previous at dct8x8.1.sm_61.ptx:510 skipping new declaration
GPGPU-Sim PTX: Warning %f41 was declared previous at dct8x8.1.sm_61.ptx:510 skipping new declaration
GPGPU-Sim PTX: Warning %f42 was declared previous at dct8x8.1.sm_61.ptx:510 skipping new declaration
GPGPU-Sim PTX: Warning %f43 was declared previous at dct8x8.1.sm_61.ptx:510 skipping new declaration
GPGPU-Sim PTX: Warning %f44 was declared previous at dct8x8.1.sm_61.ptx:510 skipping new declaration
GPGPU-Sim PTX: Warning %f45 was declared previous at dct8x8.1.sm_61.ptx:510 skipping new declaration
GPGPU-Sim PTX: Warning %f46 was declared previous at dct8x8.1.sm_61.ptx:510 skipping new declaration
[...]
self exe links to: /home/htran197/accel-sim-framework/util/accelwattch/accelwattch_benchmarks/validation/dct8x8
11.0
GPGPU-Sim PTX: __cudaRegisterFatBinary, fat_cubin_handle = 2, filename=default
GPGPU-Sim PTX: __cudaRegisterFunction __nv_static_51__38_cuda_device_runtime_compute_80_cpp1_ii_8b1a5d37__Z16memcpy_3d_deviceImLi1ELi1ELi1EEvPKhPhT_S3_S3_S3_S3_S3_S3_jjjjjjjjS3_S1_S2_ : hostFun 0x0x561bebd59cc0, fat_cubin_handle = 2
Warning: cannot find deviceFun __nv_static_51__38_cuda_device_runtime_compute_80_cpp1_ii_8b1a5d37__Z16memcpy_3d_deviceImLi1ELi1ELi1EEvPKhPhT_S3_S3_S3_S3_S3_S3_jjjjjjjjS3_S1_S2_
GPGPU-Sim PTX: __cudaRegisterFunction __nv_static_51__38_cuda_device_runtime_compute_80_cpp1_ii_8b1a5d37__Z16memcpy_3d_deviceImLi1ELi1ELi0EEvPKhPhT_S3_S3_S3_S3_S3_S3_jjjjjjjjS3_S1_S2_ : hostFun 0x0x561bebd59a20, fat_cubin_handle = 2
Warning: cannot find deviceFun __nv_static_51__38_cuda_device_runtime_compute_80_cpp1_ii_8b1a5d37__Z16memcpy_3d_deviceImLi1ELi1ELi0EEvPKhPhT_S3_S3_S3_S3_S3_S3_jjjjjjjjS3_S1_S2_
GPGPU-Sim PTX: __cudaRegisterFunction __nv_static_51__38_cuda_device_runtime_compute_80_cpp1_ii_8b1a5d37__Z16memcpy_3d_deviceImLi1ELi0ELi1EEvPKhPhT_S3_S3_S3_S3_S3_S3_jjjjjjjjS3_S1_S2_ : hostFun 0x0x561bebd59780, fat_cubin_handle = 2
Warning: cannot find deviceFun __nv_static_51__38_cuda_device_runtime_compute_80_cpp1_ii_8b1a5d37__Z16memcpy_3d_deviceImLi1ELi0ELi1EEvPKhPhT_S3_S3_S3_S3_S3_S3_jjjjjjjjS3_S1_S2_
GPGPU-Sim PTX: __cudaRegisterFunction __nv_static_51__38_cuda_device_runtime_compute_80_cpp1_ii_8b1a5d37__Z16memcpy_3d_deviceImLi1ELi0ELi0EEvPKhPhT_S3_S3_S3_S3_S3_S3_jjjjjjjjS3_S1_S2_ : hostFun 0x0x561bebd594e0, fat_cubin_handle = 2
Warning: cannot find deviceFun __nv_static_51__38_cuda_device_runtime_compute_80_cpp1_ii_8b1a5d37__Z16memcpy_3d_deviceImLi1ELi0ELi0EEvPKhPhT_S3_S3_S3_S3_S3_S3_jjjjjjjjS3_S1_S2_
GPGPU-Sim PTX: __cudaRegisterFunction __nv_static_51__38_cuda_device_runtime_compute_80_cpp1_ii_8b1a5d37__Z16memcpy_3d_deviceImLi0ELi1ELi1EEvPKhPhT_S3_S3_S3_S3_S3_S3_jjjjjjjjS3_S1_S2_ : hostFun 0x0x561bebd59240, fat_cubin_handle = 2
Warning: cannot find deviceFun __nv_static_51__38_cuda_device_runtime_compute_80_cpp1_ii_8b1a5d37__Z16memcpy_3d_deviceImLi0ELi1ELi1EEvPKhPhT_S3_S3_S3_S3_S3_S3_jjjjjjjjS3_S1_S2_
GPGPU-Sim PTX: __cudaRegisterFunction __nv_static_51__38_cuda_device_runtime_compute_80_cpp1_ii_8b1a5d37__Z16memcpy_3d_deviceImLi0ELi1ELi0EEvPKhPhT_S3_S3_S3_S3_S3_S3_jjjjjjjjS3_S1_S2_ : hostFun 0x0x561bebd58fa0, fat_cubin_handle = 2
Warning: cannot find deviceFun __nv_static_51__38_cuda_device_runtime_compute_80_cpp1_ii_8b1a5d37__Z16memcpy_3d_deviceImLi0ELi1ELi0EEvPKhPhT_S3_S3_S3_S3_S3_S3_jjjjjjjjS3_S1_S2_
GPGPU-Sim PTX: __cudaRegisterFunction __nv_static_51__38_cuda_device_runtime_compute_80_cpp1_ii_8b1a5d37__Z16memcpy_3d_deviceImLi0ELi0ELi1EEvPKhPhT_S3_S3_S3_S3_S3_S3_jjjjjjjjS3_S1_S2_ : hostFun 0x0x561bebd58d00, fat_cubin_handle = 2
Warning: cannot find deviceFun __nv_static_51__38_cuda_device_runtime_compute_80_cpp1_ii_8b1a5d37__Z16memcpy_3d_deviceImLi0ELi0ELi1EEvPKhPhT_S3_S3_S3_S3_S3_S3_jjjjjjjjS3_S1_S2_
GPGPU-Sim PTX: __cudaRegisterFunction __nv_static_51__38_cuda_device_runtime_compute_80_cpp1_ii_8b1a5d37__Z16memcpy_3d_deviceImLi0ELi0ELi0EEvPKhPhT_S3_S3_S3_S3_S3_S3_jjjjjjjjS3_S1_S2_ : hostFun 0x0x561bebd58a60, fat_cubin_handle = 2
Warning: cannot find deviceFun __nv_static_51__38_cuda_device_runtime_compute_80_cpp1_ii_8b1a5d37__Z16memcpy_3d_deviceImLi0ELi0ELi0EEvPKhPhT_S3_S3_S3_S3_S3_S3_jjjjjjjjS3_S1_S2_
GPGPU-Sim PTX: __cudaRegisterFunction __nv_static_51__38_cuda_device_runtime_compute_80_cpp1_ii_8b1a5d37__Z16memcpy_3d_deviceIjLi1ELi1ELi1EEvPKhPhT_S3_S3_S3_S3_S3_S3_jjjjjjjjS3_S1_S2_ : hostFun 0x0x561bebd587e0, fat_cubin_handle = 2
Warning: cannot find deviceFun __nv_static_51__38_cuda_device_runtime_compute_80_cpp1_ii_8b1a5d37__Z16memcpy_3d_deviceIjLi1ELi1ELi1EEvPKhPhT_S3_S3_S3_S3_S3_S3_jjjjjjjjS3_S1_S2_
GPGPU-Sim PTX: __cudaRegisterFunction __nv_static_51__38_cuda_device_runtime_compute_80_cpp1_ii_8b1a5d37__Z16memcpy_3d_deviceIjLi1ELi1ELi0EEvPKhPhT_S3_S3_S3_S3_S3_S3_jjjjjjjjS3_S1_S2_ : hostFun 0x0x561bebd58560, fat_cubin_handle = 2
Warning: cannot find deviceFun __nv_static_51__38_cuda_device_runtime_compute_80_cpp1_ii_8b1a5d37__Z16memcpy_3d_deviceIjLi1ELi1ELi0EEvPKhPhT_S3_S3_S3_S3_S3_S3_jjjjjjjjS3_S1_S2_
GPGPU-Sim PTX: __cudaRegisterFunction __nv_static_51__38_cuda_device_runtime_compute_80_cpp1_ii_8b1a5d37__Z16memcpy_3d_deviceIjLi1ELi0ELi1EEvPKhPhT_S3_S3_S3_S3_S3_S3_jjjjjjjjS3_S1_S2_ : hostFun 0x0x561bebd582e0, fat_cubin_handle = 2
Warning: cannot find deviceFun __nv_static_51__38_cuda_device_runtime_compute_80_cpp1_ii_8b1a5d37__Z16memcpy_3d_deviceIjLi1ELi0ELi1EEvPKhPhT_S3_S3_S3_S3_S3_S3_jjjjjjjjS3_S1_S2_
GPGPU-Sim PTX: __cudaRegisterFunction __nv_static_51__38_cuda_device_runtime_compute_80_cpp1_ii_8b1a5d37__Z16memcpy_3d_deviceIjLi1ELi0ELi0EEvPKhPhT_S3_S3_S3_S3_S3_S3_jjjjjjjjS3_S1_S2_ : hostFun 0x0x561bebd58060, fat_cubin_handle = 2
Warning: cannot find deviceFun __nv_static_51__38_cuda_device_runtime_compute_80_cpp1_ii_8b1a5d37__Z16memcpy_3d_deviceIjLi1ELi0ELi0EEvPKhPhT_S3_S3_S3_S3_S3_S3_jjjjjjjjS3_S1_S2_
GPGPU-Sim PTX: __cudaRegisterFunction __nv_static_51__38_cuda_device_runtime_compute_80_cpp1_ii_8b1a5d37__Z16memcpy_3d_deviceIjLi0ELi1ELi1EEvPKhPhT_S3_S3_S3_S3_S3_S3_jjjjjjjjS3_S1_S2_ : hostFun 0x0x561bebd57de0, fat_cubin_handle = 2
Warning: cannot find deviceFun __nv_static_51__38_cuda_device_runtime_compute_80_cpp1_ii_8b1a5d37__Z16memcpy_3d_deviceIjLi0ELi1ELi1EEvPKhPhT_S3_S3_S3_S3_S3_S3_jjjjjjjjS3_S1_S2_
GPGPU-Sim PTX: __cudaRegisterFunction __nv_static_51__38_cuda_device_runtime_compute_80_cpp1_ii_8b1a5d37__Z16memcpy_3d_deviceIjLi0ELi1ELi0EEvPKhPhT_S3_S3_S3_S3_S3_S3_jjjjjjjjS3_S1_S2_ : hostFun 0x0x561bebd57b60, fat_cubin_handle = 2
Warning: cannot find deviceFun __nv_static_51__38_cuda_device_runtime_compute_80_cpp1_ii_8b1a5d37__Z16memcpy_3d_deviceIjLi0ELi1ELi0EEvPKhPhT_S3_S3_S3_S3_S3_S3_jjjjjjjjS3_S1_S2_
GPGPU-Sim PTX: __cudaRegisterFunction __nv_static_51__38_cuda_device_runtime_compute_80_cpp1_ii_8b1a5d37__Z16memcpy_3d_deviceIjLi0ELi0ELi1EEvPKhPhT_S3_S3_S3_S3_S3_S3_jjjjjjjjS3_S1_S2_ : hostFun 0x0x561bebd578e0, fat_cubin_handle = 2
Warning: cannot find deviceFun __nv_static_51__38_cuda_device_runtime_compute_80_cpp1_ii_8b1a5d37__Z16memcpy_3d_deviceIjLi0ELi0ELi1EEvPKhPhT_S3_S3_S3_S3_S3_S3_jjjjjjjjS3_S1_S2_
GPGPU-Sim PTX: __cudaRegisterFunction __nv_static_51__38_cuda_device_runtime_compute_80_cpp1_ii_8b1a5d37__Z16memcpy_3d_deviceIjLi0ELi0ELi0EEvPKhPhT_S3_S3_S3_S3_S3_S3_jjjjjjjjS3_S1_S2_ : hostFun 0x0x561bebd57660, fat_cubin_handle = 2
Warning: cannot find deviceFun __nv_static_51__38_cuda_device_runtime_compute_80_cpp1_ii_8b1a5d37__Z16memcpy_3d_deviceIjLi0ELi0ELi0EEvPKhPhT_S3_S3_S3_S3_S3_S3_jjjjjjjjS3_S1_S2_
GPGPU-Sim PTX: __cudaRegisterFunction __nv_static_51__38_cuda_device_runtime_compute_80_cpp1_ii_8b1a5d37__Z16memset_3d_deviceImLi1ELi1ELi1EEvPhhjT_S1_S1_S1_S1_jjjjjjjS1_S0_ : hostFun 0x0x561bebd57410, fat_cubin_handle = 2
Warning: cannot find deviceFun __nv_static_51__38_cuda_device_runtime_compute_80_cpp1_ii_8b1a5d37__Z16memset_3d_deviceImLi1ELi1ELi1EEvPhhjT_S1_S1_S1_S1_jjjjjjjS1_S0_
GPGPU-Sim PTX: __cudaRegisterFunction __nv_static_51__38_cuda_device_runtime_compute_80_cpp1_ii_8b1a5d37__Z16memset_3d_deviceImLi1ELi1ELi0EEvPhhjT_S1_S1_S1_S1_jjjjjjjS1_S0_ : hostFun 0x0x561bebd571c0, fat_cubin_handle = 2
Warning: cannot find deviceFun __nv_static_51__38_cuda_device_runtime_compute_80_cpp1_ii_8b1a5d37__Z16memset_3d_deviceImLi1ELi1ELi0EEvPhhjT_S1_S1_S1_S1_jjjjjjjS1_S0_
GPGPU-Sim PTX: __cudaRegisterFunction __nv_static_51__38_cuda_device_runtime_compute_80_cpp1_ii_8b1a5d37__Z16memset_3d_deviceImLi1ELi0ELi1EEvPhhjT_S1_S1_S1_S1_jjjjjjjS1_S0_ : hostFun 0x0x561bebd56f70, fat_cubin_handle = 2
Warning: cannot find deviceFun __nv_static_51__38_cuda_device_runtime_compute_80_cpp1_ii_8b1a5d37__Z16memset_3d_deviceImLi1ELi0ELi1EEvPhhjT_S1_S1_S1_S1_jjjjjjjS1_S0_
GPGPU-Sim PTX: __cudaRegisterFunction __nv_static_51__38_cuda_device_runtime_compute_80_cpp1_ii_8b1a5d37__Z16memset_3d_deviceImLi1ELi0ELi0EEvPhhjT_S1_S1_S1_S1_jjjjjjjS1_S0_ : hostFun 0x0x561bebd56d20, fat_cubin_handle = 2
Warning: cannot find deviceFun __nv_static_51__38_cuda_device_runtime_compute_80_cpp1_ii_8b1a5d37__Z16memset_3d_deviceImLi1ELi0ELi0EEvPhhjT_S1_S1_S1_S1_jjjjjjjS1_S0_
GPGPU-Sim PTX: __cudaRegisterFunction __nv_static_51__38_cuda_device_runtime_compute_80_cpp1_ii_8b1a5d37__Z16memset_3d_deviceImLi0ELi1ELi1EEvPhhjT_S1_S1_S1_S1_jjjjjjjS1_S0_ : hostFun 0x0x561bebd56ad0, fat_cubin_handle = 2
Warning: cannot find deviceFun __nv_static_51__38_cuda_device_runtime_compute_80_cpp1_ii_8b1a5d37__Z16memset_3d_deviceImLi0ELi1ELi1EEvPhhjT_S1_S1_S1_S1_jjjjjjjS1_S0_
GPGPU-Sim PTX: __cudaRegisterFunction __nv_static_51__38_cuda_device_runtime_compute_80_cpp1_ii_8b1a5d37__Z16memset_3d_deviceImLi0ELi1ELi0EEvPhhjT_S1_S1_S1_S1_jjjjjjjS1_S0_ : hostFun 0x0x561bebd56880, fat_cubin_handle = 2
Warning: cannot find deviceFun __nv_static_51__38_cuda_device_runtime_compute_80_cpp1_ii_8b1a5d37__Z16memset_3d_deviceImLi0ELi1ELi0EEvPhhjT_S1_S1_S1_S1_jjjjjjjS1_S0_
GPGPU-Sim PTX: __cudaRegisterFunction __nv_static_51__38_cuda_device_runtime_compute_80_cpp1_ii_8b1a5d37__Z16memset_3d_deviceImLi0ELi0ELi1EEvPhhjT_S1_S1_S1_S1_jjjjjjjS1_S0_ : hostFun 0x0x561bebd56630, fat_cubin_handle = 2
Warning: cannot find deviceFun __nv_static_51__38_cuda_device_runtime_compute_80_cpp1_ii_8b1a5d37__Z16memset_3d_deviceImLi0ELi0ELi1EEvPhhjT_S1_S1_S1_S1_jjjjjjjS1_S0_
GPGPU-Sim PTX: __cudaRegisterFunction __nv_static_51__38_cuda_device_runtime_compute_80_cpp1_ii_8b1a5d37__Z16memset_3d_deviceImLi0ELi0ELi0EEvPhhjT_S1_S1_S1_S1_jjjjjjjS1_S0_ : hostFun 0x0x561bebd563e0, fat_cubin_handle = 2
Warning: cannot find deviceFun __nv_static_51__38_cuda_device_runtime_compute_80_cpp1_ii_8b1a5d37__Z16memset_3d_deviceImLi0ELi0ELi0EEvPhhjT_S1_S1_S1_S1_jjjjjjjS1_S0_
GPGPU-Sim PTX: __cudaRegisterFunction __nv_static_51__38_cuda_device_runtime_compute_80_cpp1_ii_8b1a5d37__Z16memset_3d_deviceIjLi1ELi1ELi1EEvPhhjT_S1_S1_S1_S1_jjjjjjjS1_S0_ : hostFun 0x0x561bebd561c0, fat_cubin_handle = 2
Warning: cannot find deviceFun __nv_static_51__38_cuda_device_runtime_compute_80_cpp1_ii_8b1a5d37__Z16memset_3d_deviceIjLi1ELi1ELi1EEvPhhjT_S1_S1_S1_S1_jjjjjjjS1_S0_
GPGPU-Sim PTX: __cudaRegisterFunction __nv_static_51__38_cuda_device_runtime_compute_80_cpp1_ii_8b1a5d37__Z16memset_3d_deviceIjLi1ELi1ELi0EEvPhhjT_S1_S1_S1_S1_jjjjjjjS1_S0_ : hostFun 0x0x561bebd55fa0, fat_cubin_handle = 2
Warning: cannot find deviceFun __nv_static_51__38_cuda_device_runtime_compute_80_cpp1_ii_8b1a5d37__Z16memset_3d_deviceIjLi1ELi1ELi0EEvPhhjT_S1_S1_S1_S1_jjjjjjjS1_S0_
GPGPU-Sim PTX: __cudaRegisterFunction __nv_static_51__38_cuda_device_runtime_compute_80_cpp1_ii_8b1a5d37__Z16memset_3d_deviceIjLi1ELi0ELi1EEvPhhjT_S1_S1_S1_S1_jjjjjjjS1_S0_ : hostFun 0x0x561bebd55d80, fat_cubin_handle = 2
Warning: cannot find deviceFun __nv_static_51__38_cuda_device_runtime_compute_80_cpp1_ii_8b1a5d37__Z16memset_3d_deviceIjLi1ELi0ELi1EEvPhhjT_S1_S1_S1_S1_jjjjjjjS1_S0_
GPGPU-Sim PTX: __cudaRegisterFunction __nv_static_51__38_cuda_device_runtime_compute_80_cpp1_ii_8b1a5d37__Z16memset_3d_deviceIjLi1ELi0ELi0EEvPhhjT_S1_S1_S1_S1_jjjjjjjS1_S0_ : hostFun 0x0x561bebd55b60, fat_cubin_handle = 2
Warning: cannot find deviceFun __nv_static_51__38_cuda_device_runtime_compute_80_cpp1_ii_8b1a5d37__Z16memset_3d_deviceIjLi1ELi0ELi0EEvPhhjT_S1_S1_S1_S1_jjjjjjjS1_S0_
GPGPU-Sim PTX: __cudaRegisterFunction __nv_static_51__38_cuda_device_runtime_compute_80_cpp1_ii_8b1a5d37__Z16memset_3d_deviceIjLi0ELi1ELi1EEvPhhjT_S1_S1_S1_S1_jjjjjjjS1_S0_ : hostFun 0x0x561bebd55940, fat_cubin_handle = 2
Warning: cannot find deviceFun __nv_static_51__38_cuda_device_runtime_compute_80_cpp1_ii_8b1a5d37__Z16memset_3d_deviceIjLi0ELi1ELi1EEvPhhjT_S1_S1_S1_S1_jjjjjjjS1_S0_
GPGPU-Sim PTX: __cudaRegisterFunction __nv_static_51__38_cuda_device_runtime_compute_80_cpp1_ii_8b1a5d37__Z16memset_3d_deviceIjLi0ELi1ELi0EEvPhhjT_S1_S1_S1_S1_jjjjjjjS1_S0_ : hostFun 0x0x561bebd55720, fat_cubin_handle = 2
Warning: cannot find deviceFun __nv_static_51__38_cuda_device_runtime_compute_80_cpp1_ii_8b1a5d37__Z16memset_3d_deviceIjLi0ELi1ELi0EEvPhhjT_S1_S1_S1_S1_jjjjjjjS1_S0_
GPGPU-Sim PTX: __cudaRegisterFunction __nv_static_51__38_cuda_device_runtime_compute_80_cpp1_ii_8b1a5d37__Z16memset_3d_deviceIjLi0ELi0ELi1EEvPhhjT_S1_S1_S1_S1_jjjjjjjS1_S0_ : hostFun 0x0x561bebd55500, fat_cubin_handle = 2
Warning: cannot find deviceFun __nv_static_51__38_cuda_device_runtime_compute_80_cpp1_ii_8b1a5d37__Z16memset_3d_deviceIjLi0ELi0ELi1EEvPhhjT_S1_S1_S1_S1_jjjjjjjS1_S0_
GPGPU-Sim PTX: __cudaRegisterFunction __nv_static_51__38_cuda_device_runtime_compute_80_cpp1_ii_8b1a5d37__Z16memset_3d_deviceIjLi0ELi0ELi0EEvPhhjT_S1_S1_S1_S1_jjjjjjjS1_S0_ : hostFun 0x0x561bebd552e0, fat_cubin_handle = 2
Warning: cannot find deviceFun __nv_static_51__38_cuda_device_runtime_compute_80_cpp1_ii_8b1a5d37__Z16memset_3d_deviceIjLi0ELi0ELi0EEvPhhjT_S1_S1_S1_S1_jjjjjjjS1_S0_
GPGPU-Sim PTX: __cudaRegisterVar: hostVar = 0x561bec01fbe0; deviceAddress = __nv_static_51__38_cuda_device_runtime_compute_80_cpp1_ii_8b1a5d37_set_kernel32; deviceName = __nv_static_51__38_cuda_device_runtime_compute_80_cpp1_ii_8b1a5d37_set_kernel32
GPGPU-Sim PTX: __cudaRegisterVar: Registering const memory space of 64 bytes
GPGPU-Sim PTX registering global __nv_static_51__38_cuda_device_runtime_compute_80_cpp1_ii_8b1a5d37_set_kernel32 hostVar to name mapping
GPGPU-Sim PTX: __cudaRegisterVar: hostVar = 0x561bec01fba0; deviceAddress = __nv_static_51__38_cuda_device_runtime_compute_80_cpp1_ii_8b1a5d37_set_kernel64; deviceName = __nv_static_51__38_cuda_device_runtime_compute_80_cpp1_ii_8b1a5d37_set_kernel64
GPGPU-Sim PTX: __cudaRegisterVar: Registering const memory space of 64 bytes
GPGPU-Sim PTX registering global __nv_static_51__38_cuda_device_runtime_compute_80_cpp1_ii_8b1a5d37_set_kernel64 hostVar to name mapping
GPGPU-Sim PTX: __cudaRegisterVar: hostVar = 0x561bec01fb60; deviceAddress = __nv_static_51__38_cuda_device_runtime_compute_80_cpp1_ii_8b1a5d37_cpy_kernel32; deviceName = __nv_static_51__38_cuda_device_runtime_compute_80_cpp1_ii_8b1a5d37_cpy_kernel32
GPGPU-Sim PTX: __cudaRegisterVar: Registering const memory space of 64 bytes
GPGPU-Sim PTX registering global __nv_static_51__38_cuda_device_runtime_compute_80_cpp1_ii_8b1a5d37_cpy_kernel32 hostVar to name mapping
GPGPU-Sim PTX: __cudaRegisterVar: hostVar = 0x561bec01fb20; deviceAddress = __nv_static_51__38_cuda_device_runtime_compute_80_cpp1_ii_8b1a5d37_cpy_kernel64; deviceName = __nv_static_51__38_cuda_device_runtime_compute_80_cpp1_ii_8b1a5d37_cpy_kernel64
GPGPU-Sim PTX: __cudaRegisterVar: Registering const memory space of 64 bytes
GPGPU-Sim PTX registering global __nv_static_51__38_cuda_device_runtime_compute_80_cpp1_ii_8b1a5d37_cpy_kernel64 hostVar to name mapping
GPGPU-Sim PTX: __cudaRegisterVar: hostVar = 0x561bec01e100; deviceAddress = __nv_static_51__38_cuda_device_runtime_compute_80_cpp1_ii_8b1a5d37_cudartErrorTableArr; deviceName = __nv_static_51__38_cuda_device_runtime_compute_80_cpp1_ii_8b1a5d37_cudartErrorTableArr
GPGPU-Sim PTX: __cudaRegisterVar: Registering const memory space of 2640 bytes
GPGPU-Sim PTX registering global __nv_static_51__38_cuda_device_runtime_compute_80_cpp1_ii_8b1a5d37_cudartErrorTableArr hostVar to name mapping
GPGPU-Sim PTX: __cudaRegisterVar: hostVar = 0x561bec01fb10; deviceAddress = cudartErrorTable; deviceName = cudartErrorTable
GPGPU-Sim PTX: __cudaRegisterVar: Registering const memory space of 8 bytes
GPGPU-Sim PTX registering global cudartErrorTable hostVar to name mapping
GPGPU-Sim PTX: __cudaRegisterVar: hostVar = 0x561bebd5f6e8; deviceAddress = cudartErrorTableEntryCount; deviceName = cudartErrorTableEntryCount
GPGPU-Sim PTX: __cudaRegisterVar: Registering const memory space of 4 bytes
GPGPU-Sim PTX registering global cudartErrorTableEntryCount hostVar to name mapping
GPGPU-Sim PTX: __cudaRegisterVar: hostVar = 0x561bebd5f680; deviceAddress = __nv_static_51__38_cuda_device_runtime_compute_80_cpp1_ii_8b1a5d37_cudartErrorCnpMapArr; deviceName = __nv_static_51__38_cuda_device_runtime_compute_80_cpp1_ii_8b1a5d37_cudartErrorCnpMapArr
GPGPU-Sim PTX: __cudaRegisterVar: Registering const memory space of 104 bytes
GPGPU-Sim PTX registering global __nv_static_51__38_cuda_device_runtime_compute_80_cpp1_ii_8b1a5d37_cudartErrorCnpMapArr hostVar to name mapping
GPGPU-Sim PTX: __cudaRegisterVar: hostVar = 0x561bec01fb08; deviceAddress = cudartErrorCnpMap; deviceName = cudartErrorCnpMap
GPGPU-Sim PTX: __cudaRegisterVar: Registering const memory space of 8 bytes
GPGPU-Sim PTX registering global cudartErrorCnpMap hostVar to name mapping
GPGPU-Sim PTX: __cudaRegisterVar: hostVar = 0x561bebd5f660; deviceAddress = cudartErrorCnpMapEntryCount; deviceName = cudartErrorCnpMapEntryCount
GPGPU-Sim PTX: __cudaRegisterVar: Registering const memory space of 4 bytes
GPGPU-Sim PTX registering global cudartErrorCnpMapEntryCount hostVar to name mapping
GPGPU-Sim PTX: __cudaRegisterVar: hostVar = 0x561bec01fb00; deviceAddress = __CNPRT_VERSION_NUMBER__; deviceName = __CNPRT_VERSION_NUMBER__
GPGPU-Sim PTX: __cudaRegisterVar: Registering const memory space of 4 bytes
GPGPU-Sim PTX registering global __CNPRT_VERSION_NUMBER__ hostVar to name mapping
/home/htran197/accel-sim-framework/gpu-simulator/../util/accelwattch/accelwattch_benchmarks/validation/dct8x8 Starting...

CUDA sample DCT/IDCT implementation
===================================
Loading test image: barbara.bmp... [512 x 512]... Success
Running Gold 1 (CPU) version... Success
Running Gold 2 (CPU) version... Success
Running CUDA 1 (GPU) version... GPGPU-Sim PTX: cudaMallocArray: devPtr32 = -1073741824
GPGPU-Sim PTX: cudaMallocPitch (width = 2048)
GPGPU-Sim PTX: in cudaBindTextureToArray: 0x561bec01f6a0 0x561bee1dad80
GPGPU-Sim PTX:   devPtr32 = c0000000
GPGPU-Sim PTX:   Name corresponding to textureReference: TexSrc
GPGPU-Sim PTX:   Texture Normalized? = 0
GPGPU-Sim PTX:   texel size = 4
GPGPU-Sim PTX:   texture cache linesize = 128
GPGPU-Sim PTX:   Tx = 8; Ty = 4, Tx_numbits = 3, Ty_numbits = 2
GPGPU-Sim PTX:   Texel size = 4 bytes; texel_size_numbits = 2
GPGPU-Sim PTX:   Binding texture to array starting at devPtr32 = 0xc0000000
GPGPU-Sim PTX:   Texel size = 4 bytes
GPGPU-Sim PTX: Setting up arguments for 8 bytes starting at 0x7ffeb34e69e8..
GPGPU-Sim PTX: Setting up arguments for 4 bytes starting at 0x7ffeb34e69e4..
GPGPU-Sim PTX: Setting up arguments for 4 bytes starting at 0x7ffeb34e69e0..
GPGPU-Sim PTX: Setting up arguments for 4 bytes starting at 0x7ffeb34e69dc..

GPGPU-Sim PTX: cudaLaunch for 0x0x561bebd53219 (mode=performance simulation) on stream 0
GPGPU-Sim PTX: finding reconvergence points for '_Z14CUDAkernel1DCTPfiii'...
GPGPU-Sim PTX: Finding dominators for '_Z14CUDAkernel1DCTPfiii'...
GPGPU-Sim PTX: Finding immediate dominators for '_Z14CUDAkernel1DCTPfiii'...
GPGPU-Sim PTX: Finding postdominators for '_Z14CUDAkernel1DCTPfiii'...
GPGPU-Sim PTX: Finding immediate postdominators for '_Z14CUDAkernel1DCTPfiii'...
GPGPU-Sim PTX: pre-decoding instructions for '_Z14CUDAkernel1DCTPfiii'...
GPGPU-Sim PTX: reconvergence points for _Z14CUDAkernel1DCTPfiii...
GPGPU-Sim PTX: ... end of reconvergence points for _Z14CUDAkernel1DCTPfiii
GPGPU-Sim PTX: ... done pre-decoding instructions for '_Z14CUDAkernel1DCTPfiii'.
GPGPU-Sim PTX: pushing kernel '_Z14CUDAkernel1DCTPfiii' to stream 0, gridDim= (64,64,1) blockDim = (8,8,1) 
GPGPU-Sim uArch: Shader 0 bind to kernel 1 '_Z14CUDAkernel1DCTPfiii'
GPGPU-Sim uArch: CTA/core = 32, limited by: threads cta_limit
GPGPU-Sim uArch: Shader 1 bind to kernel 1 '_Z14CUDAkernel1DCTPfiii'
GPGPU-Sim uArch: Shader 2 bind to kernel 1 '_Z14CUDAkernel1DCTPfiii'
GPGPU-Sim uArch: Shader 3 bind to kernel 1 '_Z14CUDAkernel1DCTPfiii'
GPGPU-Sim uArch: Shader 4 bind to kernel 1 '_Z14CUDAkernel1DCTPfiii'
GPGPU-Sim uArch: Shader 5 bind to kernel 1 '_Z14CUDAkernel1DCTPfiii'
